@<TRIPOS>MOLECULE
ACX - Ideal conformer
 126 132 0 0 0
SMALL
GASTEIGER

@<TRIPOS>ATOM
      1 C          -5.9452   -5.8252   -0.1645 C.3     1  LIG1        0.1884
      2 C          -5.9206   -4.2800   -0.1810 C.3     1  LIG1        0.1341
      3 C          -4.5122   -3.7104   -0.1677 C.3     1  LIG1        0.1144
      4 C          -3.6820   -4.4084   -1.2615 C.3     1  LIG1        0.1184
      5 C          -3.6523   -5.8948   -0.8974 C.3     1  LIG1        0.1134
      6 C          -2.7270   -6.6921   -1.8184 C.3     1  LIG1        0.0730
      7 O          -7.2678   -6.2006   -0.5625 O.3     1  LIG1       -0.3401
      8 O          -6.5670   -3.7312   -1.3590 O.3     1  LIG1       -0.3841
      9 O          -4.6255   -2.2881   -0.3710 O.3     1  LIG1       -0.3864
     10 O          -4.9898   -6.4268   -1.0487 O.3     1  LIG1       -0.3405
     11 O          -2.7643   -8.0724   -1.4489 O.3     1  LIG1       -0.3924
     12 C         -10.3952   -7.2067   -0.1501 C.3     1  LIG1        0.1884
     13 C          -9.7314   -8.0947    0.9168 C.3     1  LIG1        0.1341
     14 C          -8.2460   -7.7300    1.0195 C.3     1  LIG1        0.1144
     15 C          -7.5864   -7.5791   -0.3628 C.3     1  LIG1        0.1184
     16 C          -8.5413   -8.0144   -1.4966 C.3     1  LIG1        0.1134
     17 C          -7.9586   -7.6932   -2.8805 C.3     1  LIG1        0.0730
     18 O         -10.2353   -5.8261    0.1786 O.3     1  LIG1       -0.3401
     19 O         -10.3318   -7.9549    2.2145 O.3     1  LIG1       -0.3841
     20 O          -7.5747   -8.7530    1.7724 O.3     1  LIG1       -0.3864
     21 O          -9.8552   -7.4140   -1.4518 O.3     1  LIG1       -0.3405
     22 O          -8.8200   -8.2248   -3.8916 O.3     1  LIG1       -0.3924
     23 C         -10.8438   -2.4007   -0.0196 C.3     1  LIG1        0.1884
     24 C         -10.1286   -3.0317    1.2055 C.3     1  LIG1        0.1341
     25 C         -10.9280   -4.1974    1.8061 C.3     1  LIG1        0.1144
     26 C         -11.3999   -5.1792    0.7128 C.3     1  LIG1        0.1184
     27 C         -12.1174   -4.3684   -0.3832 C.3     1  LIG1        0.1134
     28 C         -12.6489   -5.2269   -1.5303 C.3     1  LIG1        0.0730
     29 O          -9.9332   -1.4415   -0.5721 O.3     1  LIG1       -0.3401
     30 O          -8.8284   -3.5194    0.8366 O.3     1  LIG1       -0.3841
     31 O         -12.0568   -3.7065    2.5326 O.3     1  LIG1       -0.3864
     32 O         -11.2002   -3.4139   -0.9602 O.3     1  LIG1       -0.3405
     33 O         -13.4626   -4.4223   -2.3863 O.3     1  LIG1       -0.3924
     34 C          -8.1906    1.0455   -2.6024 C.3     1  LIG1        0.1884
     35 C          -9.4308    1.3038   -1.6949 C.3     1  LIG1        0.1341
     36 C         -10.5695    0.3539   -2.0865 C.3     1  LIG1        0.1144
     37 C         -10.1138   -1.1084   -1.9593 C.3     1  LIG1        0.1184
     38 C          -8.7222   -1.2931   -2.6058 C.3     1  LIG1        0.1134
     39 C          -8.6918   -2.5401   -3.5021 C.3     1  LIG1        0.0730
     40 O          -6.9210    1.0016   -1.9440 O.3     1  LIG1       -0.3401
     41 O          -9.1700    1.1779   -0.2843 O.3     1  LIG1       -0.3841
     42 O         -11.7152    0.5892   -1.2566 O.3     1  LIG1       -0.3864
     43 O          -8.3542   -0.1460   -3.3882 O.3     1  LIG1       -0.3405
     44 O          -7.3406   -2.8813   -3.8398 O.3     1  LIG1       -0.3924
     45 C          -3.7256    1.7158   -1.1963 C.3     1  LIG1        0.1884
     46 C          -4.3829    1.9355    0.1767 C.3     1  LIG1        0.1341
     47 C          -5.8981    1.6878    0.1288 C.3     1  LIG1        0.1144
     48 C          -6.5489    2.1674   -1.1925 C.3     1  LIG1        0.1184
     49 C          -5.5724    3.0933   -1.9524 C.3     1  LIG1        0.1134
     50 C          -6.1306    3.5919   -3.2867 C.3     1  LIG1        0.0730
     51 O          -3.8092    0.3353   -1.5581 O.3     1  LIG1       -0.3401
     52 O          -3.7676    1.1168    1.1798 O.3     1  LIG1       -0.3841
     53 O          -6.1778    0.3000    0.3850 O.3     1  LIG1       -0.3864
     54 O          -4.2974    2.4930   -2.2444 O.3     1  LIG1       -0.3405
     55 O          -5.2636    4.5928   -3.8203 O.3     1  LIG1       -0.3924
     56 C          -2.2148   -2.9886   -2.5143 C.3     1  LIG1        0.1884
     57 C          -1.0688   -1.9631   -2.3122 C.3     1  LIG1        0.1341
     58 C          -1.6399   -0.7207   -1.6169 C.3     1  LIG1        0.1144
     59 C          -2.7612   -0.0670   -2.4663 C.3     1  LIG1        0.1184
     60 C          -3.3323   -1.0749   -3.4844 C.3     1  LIG1        0.1134
     61 C          -4.7247   -0.6836   -3.9941 C.3     1  LIG1        0.0730
     62 O          -2.3969   -3.7828   -1.3200 O.3     1  LIG1       -0.3401
     63 O           0.0418   -2.4929   -1.5831 O.3     1  LIG1       -0.3841
     64 O          -0.5717    0.2170   -1.3958 O.3     1  LIG1       -0.3864
     65 O          -3.4556   -2.3448   -2.8355 O.3     1  LIG1       -0.3405
     66 O          -5.1093   -1.5605   -5.0551 O.3     1  LIG1       -0.3924
     67 H          -5.7419   -6.1809    0.8533 H       1  LIG1        0.0938
     68 H          -6.4831   -3.8964    0.6733 H       1  LIG1        0.0671
     69 H          -4.0410   -3.8497    0.8121 H       1  LIG1        0.0648
     70 H          -4.1965   -4.3372   -2.2289 H       1  LIG1        0.0651
     71 H          -3.3274   -6.0591    0.1386 H       1  LIG1        0.0647
     72 H          -3.0475   -6.6241   -2.8623 H       1  LIG1        0.0584
     73 H          -1.6906   -6.3502   -1.7412 H       1  LIG1        0.0584
     74 H          -6.4519   -2.7677   -1.2182 H       1  LIG1        0.2101
     75 H          -4.2474   -2.1109   -1.2565 H       1  LIG1        0.2100
     76 H          -3.7100   -8.3122   -1.4274 H       1  LIG1        0.2095
     77 H         -11.4599   -7.4554   -0.2123 H       1  LIG1        0.0938
     78 H          -9.8282   -9.1528    0.6435 H       1  LIG1        0.0671
     79 H          -8.1275   -6.8099    1.6056 H       1  LIG1        0.0648
     80 H          -6.6749   -8.1864   -0.4307 H       1  LIG1        0.0651
     81 H          -8.7038   -9.0984   -1.4381 H       1  LIG1        0.0647
     82 H          -7.8890   -6.6138   -3.0519 H       1  LIG1        0.0584
     83 H          -6.9682   -8.1392   -3.0098 H       1  LIG1        0.0584
     84 H         -11.2260   -8.3376    2.1656 H       1  LIG1        0.2101
     85 H          -8.0544   -8.8078    2.6222 H       1  LIG1        0.2100
     86 H          -9.6937   -7.8272   -3.7140 H       1  LIG1        0.2095
     87 H         -11.7477   -1.8651    0.2951 H       1  LIG1        0.0938
     88 H          -9.9608   -2.2509    1.9560 H       1  LIG1        0.0671
     89 H         -10.2892   -4.7482    2.5089 H       1  LIG1        0.0648
     90 H         -12.0897   -5.9045    1.1620 H       1  LIG1        0.0651
     91 H         -12.9657   -3.8144    0.0415 H       1  LIG1        0.0647
     92 H         -11.8418   -5.6336   -2.1454 H       1  LIG1        0.0584
     93 H         -13.2717   -6.0446   -1.1569 H       1  LIG1        0.0584
     94 H          -8.9588   -4.1487    0.0931 H       1  LIG1        0.2101
     95 H         -11.7152   -3.3178    3.3602 H       1  LIG1        0.2100
     96 H         -12.9159   -3.6512   -2.6283 H       1  LIG1        0.2095
     97 H          -8.1610    1.8426   -3.3472 H       1  LIG1        0.0938
     98 H          -9.7598    2.3413   -1.8267 H       1  LIG1        0.0671
     99 H         -10.8688    0.5522   -3.1262 H       1  LIG1        0.0648
    100 H         -10.8722   -1.7406   -2.4334 H       1  LIG1        0.0651
    101 H          -7.9538   -1.4170   -1.8343 H       1  LIG1        0.0647
    102 H          -9.1431   -3.4066   -3.0065 H       1  LIG1        0.0584
    103 H          -9.2232   -2.3545   -4.4406 H       1  LIG1        0.0584
    104 H          -8.7620    0.2980   -0.1349 H       1  LIG1        0.2101
    105 H         -11.3497    0.7166   -0.3568 H       1  LIG1        0.2100
    106 H          -7.0255   -3.4606   -3.1084 H       1  LIG1        0.2095
    107 H          -2.6700    1.9971   -1.1065 H       1  LIG1        0.0938
    108 H          -4.2134    2.9799    0.4656 H       1  LIG1        0.0671
    109 H          -6.3444    2.2350    0.9678 H       1  LIG1        0.0648
    110 H          -7.4355    2.7591   -0.9411 H       1  LIG1        0.0651
    111 H          -5.3621    3.9749   -1.3321 H       1  LIG1        0.0647
    112 H          -7.1203    4.0403   -3.1608 H       1  LIG1        0.0584
    113 H          -6.1853    2.7877   -4.0268 H       1  LIG1        0.0584
    114 H          -4.2792    0.2774    1.1731 H       1  LIG1        0.2101
    115 H          -5.9392   -0.1775   -0.4378 H       1  LIG1        0.2100
    116 H          -4.3818    4.1764   -3.8726 H       1  LIG1        0.2095
    117 H          -1.9520   -3.6809   -3.3223 H       1  LIG1        0.0938
    118 H          -0.6692   -1.6614   -3.2885 H       1  LIG1        0.0671
    119 H          -2.0053   -1.0023   -0.6208 H       1  LIG1        0.0648
    120 H          -2.3918    0.8058   -3.0198 H       1  LIG1        0.0651
    121 H          -2.6608   -1.1948   -4.3442 H       1  LIG1        0.0647
    122 H          -5.4713   -0.7747   -3.2001 H       1  LIG1        0.0584
    123 H          -4.7316    0.3370   -4.3856 H       1  LIG1        0.0584
    124 H           0.5648   -1.7153   -1.3069 H       1  LIG1        0.2101
    125 H          -0.7972    0.7081   -0.5830 H       1  LIG1        0.2100
    126 H          -5.9365   -2.0079   -4.7631 H       1  LIG1        0.2095
@<TRIPOS>BOND
     1     1     2    1
     2     1    10    1
     3     2     3    1
     4     3     4    1
     5     4     5    1
     6     5    10    1
     7    12    13    1
     8    12    21    1
     9    13    14    1
    10    14    15    1
    11    15    16    1
    12    16    21    1
    13    23    24    1
    14    23    32    1
    15    24    25    1
    16    25    26    1
    17    26    27    1
    18    27    32    1
    19    34    35    1
    20    34    43    1
    21    35    36    1
    22    36    37    1
    23    37    38    1
    24    38    43    1
    25    45    46    1
    26    45    54    1
    27    46    47    1
    28    47    48    1
    29    48    49    1
    30    49    54    1
    31    56    57    1
    32    56    65    1
    33    57    58    1
    34    58    59    1
    35    59    60    1
    36    60    65    1
    37     6    11    1
    38     4    62    1
    39    62    56    1
    40    61    66    1
    41    51    59    1
    42    51    45    1
    43    50    55    1
    44    40    48    1
    45    40    34    1
    46    39    44    1
    47    29    37    1
    48    29    23    1
    49    28    33    1
    50    18    26    1
    51    18    12    1
    52    17    22    1
    53    13    19    1
    54    24    30    1
    55    35    41    1
    56    46    52    1
    57    57    63    1
    58     7    15    1
    59     2     8    1
    60     1     7    1
    61     3     9    1
    62     5     6    1
    63    14    20    1
    64    16    17    1
    65    25    31    1
    66    27    28    1
    67    36    42    1
    68    38    39    1
    69    47    53    1
    70    49    50    1
    71    58    64    1
    72    60    61    1
    73     1    67    1
    74     2    68    1
    75     3    69    1
    76     4    70    1
    77     5    71    1
    78     6    72    1
    79     6    73    1
    80     8    74    1
    81     9    75    1
    82    11    76    1
    83    12    77    1
    84    13    78    1
    85    14    79    1
    86    15    80    1
    87    16    81    1
    88    17    82    1
    89    17    83    1
    90    19    84    1
    91    20    85    1
    92    22    86    1
    93    23    87    1
    94    24    88    1
    95    25    89    1
    96    26    90    1
    97    27    91    1
    98    28    92    1
    99    28    93    1
   100    30    94    1
   101    31    95    1
   102    33    96    1
   103    34    97    1
   104    35    98    1
   105    36    99    1
   106    37   100    1
   107    38   101    1
   108    39   102    1
   109    39   103    1
   110    41   104    1
   111    42   105    1
   112    44   106    1
   113    45   107    1
   114    46   108    1
   115    47   109    1
   116    48   110    1
   117    49   111    1
   118    50   112    1
   119    50   113    1
   120    52   114    1
   121    53   115    1
   122    55   116    1
   123    56   117    1
   124    57   118    1
   125    58   119    1
   126    59   120    1
   127    60   121    1
   128    61   122    1
   129    61   123    1
   130    63   124    1
   131    64   125    1
   132    66   126    1
