@<TRIPOS>MOLECULE
962
 3 2 0 0 0
SMALL
GASTEIGER

@<TRIPOS>ATOM
      1 O           0.9082   -0.0379   -0.0606 O.3     1  HOH1       -0.4105
      2 H           1.8760    0.0086   -0.0600 H       0  HOH0        0.2052
      3 H           0.6293    0.8901   -0.0489 H       0  HOH0        0.2052
@<TRIPOS>BOND
     1     1     2    1
     2     1     3    1
