@<TRIPOS>MOLECULE
644019
 53 54 0 0 0
SMALL
GASTEIGER

@<TRIPOS>ATOM
      1 O          -1.9540    1.6060    3.6214 O.3     1  LIG1       -0.5063
      2 O          -2.8322   -3.1289    3.4832 O.3     1  LIG1       -0.5063
      3 C          -0.8440    0.2055    1.3321 C.3     1  LIG1       -0.0096
      4 C          -1.9566   -0.7681    1.8807 C.3     1  LIG1        0.0158
      5 C           0.5629   -0.3569    1.6117 C.3     1  LIG1       -0.0420
      6 C           0.8020   -1.7777    1.1095 C.3     1  LIG1       -0.0314
      7 C          -1.6626   -2.1470    1.2941 C.2     1  LIG1       -0.0768
      8 C          -2.1924   -0.7891    3.4219 C.ar    1  LIG1        0.0427
      9 C          -0.4408   -2.6152    0.9763 C.2     1  LIG1       -0.0759
     10 C          -1.0904    0.6824   -0.1180 C.2     1  LIG1       -0.0757
     11 C          -2.1295    0.3806    4.2065 C.ar    1  LIG1        0.1243
     12 C          -2.5840   -1.9486    4.1327 C.ar    1  LIG1        0.1243
     13 C          -0.2366   -3.9934    0.4193 C.3     1  LIG1       -0.0438
     14 C          -1.6138    2.0932   -0.2356 C.3     1  LIG1       -0.0437
     15 C          -2.6612   -0.7890    6.2794 C.ar    1  LIG1       -0.0405
     16 C          -2.3091    0.3766    5.6025 C.ar    1  LIG1       -0.0165
     17 C          -2.7931   -1.9534    5.5246 C.ar    1  LIG1       -0.0165
     18 C          -2.8770   -0.8407    7.7746 C.3     1  LIG1       -0.0275
     19 C          -0.8807   -0.0341   -1.2357 C.2     1  LIG1       -0.0994
     20 C          -3.4412    0.4208    8.4459 C.3     1  LIG1       -0.0491
     21 C          -4.8107    0.8855    7.9361 C.3     1  LIG1       -0.0530
     22 C          -5.9386   -0.1032    8.2294 C.3     1  LIG1       -0.0559
     23 C          -7.2847    0.4540    7.7901 C.3     1  LIG1       -0.0653
     24 H          -1.8768    2.2878    4.3074 H       1  LIG1        0.2921
     25 H          -2.9713   -3.8378    4.1306 H       1  LIG1        0.2921
     26 H          -0.8450    1.1386    1.8912 H       1  LIG1        0.0354
     27 H          -2.9182   -0.4405    1.4589 H       1  LIG1        0.0399
     28 H           0.7210   -0.3493    2.6992 H       1  LIG1        0.0274
     29 H           1.3292    0.3120    1.1993 H       1  LIG1        0.0274
     30 H           1.5121   -2.2760    1.7807 H       1  LIG1        0.0310
     31 H           1.2937   -1.7222    0.1304 H       1  LIG1        0.0310
     32 H          -2.5348   -2.7764    1.1301 H       1  LIG1        0.0578
     33 H           0.4008   -4.5805    1.0881 H       1  LIG1        0.0274
     34 H           0.2472   -3.9377   -0.5616 H       1  LIG1        0.0274
     35 H          -1.1807   -4.5332    0.2944 H       1  LIG1        0.0274
     36 H          -1.7736    2.3918   -1.2777 H       1  LIG1        0.0274
     37 H          -0.8990    2.7993    0.2004 H       1  LIG1        0.0274
     38 H          -2.5694    2.1904    0.2891 H       1  LIG1        0.0274
     39 H          -2.2059    1.3048    6.1556 H       1  LIG1        0.0657
     40 H          -3.0842   -2.8740    6.0254 H       1  LIG1        0.0657
     41 H          -1.9074   -1.0698    8.2355 H       1  LIG1        0.0313
     42 H          -3.5352   -1.6843    8.0170 H       1  LIG1        0.0313
     43 H          -1.0848    0.3794   -2.2195 H       1  LIG1        0.0534
     44 H          -0.5264   -1.0557   -1.2228 H       1  LIG1        0.0534
     45 H          -2.7283    1.2467    8.3364 H       1  LIG1        0.0268
     46 H          -3.5128    0.2324    9.5249 H       1  LIG1        0.0268
     47 H          -4.7713    1.0889    6.8603 H       1  LIG1        0.0265
     48 H          -5.0430    1.8425    8.4201 H       1  LIG1        0.0265
     49 H          -5.9735   -0.3207    9.3031 H       1  LIG1        0.0263
     50 H          -5.7620   -1.0500    7.7084 H       1  LIG1        0.0263
     51 H          -7.5165    1.3836    8.3201 H       1  LIG1        0.0230
     52 H          -8.0815   -0.2654    8.0029 H       1  LIG1        0.0230
     53 H          -7.2913    0.6612    6.7152 H       1  LIG1        0.0230
@<TRIPOS>BOND
     1     8    11   ar
     2     8    12   ar
     3    11    16   ar
     4    15    16   ar
     5    15    17   ar
     6    12    17   ar
     7     3     5    1
     8     3     4    1
     9     5     6    1
    10     6     9    1
    11     7     9    2
    12     4     7    1
    13     1    11    1
    14    15    18    1
    15    18    20    1
    16    20    21    1
    17    21    22    1
    18    22    23    1
    19     2    12    1
    20     9    13    1
    21    10    14    1
    22    10    19    2
    23     3    10    1
    24     4     8    1
    25     1    24    1
    26     2    25    1
    27     3    26    1
    28     4    27    1
    29     5    28    1
    30     5    29    1
    31     6    30    1
    32     6    31    1
    33     7    32    1
    34    13    33    1
    35    13    34    1
    36    13    35    1
    37    14    36    1
    38    14    37    1
    39    14    38    1
    40    16    39    1
    41    17    40    1
    42    18    41    1
    43    18    42    1
    44    19    43    1
    45    19    44    1
    46    20    45    1
    47    20    46    1
    48    21    47    1
    49    21    48    1
    50    22    49    1
    51    22    50    1
    52    23    51    1
    53    23    52    1
    54    23    53    1
