@<TRIPOS>MOLECULE
162771
 210 217 0 0 0
SMALL
GASTEIGER

@<TRIPOS>ATOM
      1 O           2.8850    1.8416   -8.9440 O.3     1  LIG1       -0.3401
      2 O           3.2580    2.5093   -3.7886 O.3     1  LIG1       -0.3401
      3 O           2.6044    0.0552  -13.3340 O.3     1  LIG1       -0.3401
      4 O           7.9360    0.3913   -1.6648 O.3     1  LIG1       -0.3401
      5 O           6.1835    1.7236  -14.9572 O.3     1  LIG1       -0.3401
      6 O           9.9809    2.6890   -5.5266 O.3     1  LIG1       -0.3401
      7 O           9.2582    1.4778  -10.4258 O.3     1  LIG1       -0.3401
      8 O           4.0546    2.8669   -6.0522 O.3     1  LIG1       -0.3405
      9 O           2.8184    0.0198  -10.3160 O.3     1  LIG1       -0.3405
     10 O           6.8264    2.2647   -2.5912 O.3     1  LIG1       -0.3405
     11 O           2.4334    1.9177  -14.7643 O.3     1  LIG1       -0.3405
     12 O           8.9394    0.9148   -4.4310 O.3     1  LIG1       -0.3405
     13 O           8.0755    0.8829  -13.8559 O.3     1  LIG1       -0.3405
     14 O           8.9911    3.3193   -9.0155 O.3     1  LIG1       -0.3405
     15 O           0.5742    3.6038   -6.6610 O.3     1  LIG1       -0.3744
     16 O           0.0665    1.8562  -12.7422 O.3     1  LIG1       -0.3744
     17 O           4.1487    2.2865   -1.0975 O.3     1  LIG1       -0.3744
     18 O           5.0843    0.0351  -16.8978 O.3     1  LIG1       -0.3744
     19 O          11.2166    1.5536   -1.0404 O.3     1  LIG1       -0.3744
     20 O           6.8442    2.7191  -10.9902 O.3     1  LIG1       -0.3744
     21 O           8.3480    0.4868   -7.9417 O.3     1  LIG1       -0.3744
     22 O           2.5459    0.5029   -6.0237 O.3     1  LIG1       -0.3721
     23 O          -0.3336    0.6189  -10.0409 O.3     1  LIG1       -0.3721
     24 O           5.3235   -1.0629   -1.9368 O.3     1  LIG1       -0.3721
     25 O           2.6637   -1.6795  -15.6020 O.3     1  LIG1       -0.3721
     26 O          10.2743    3.9985   -2.8233 O.3     1  LIG1       -0.3721
     27 O           8.2295    3.9092  -14.2104 O.3     1  LIG1       -0.3721
     28 O          11.7383    1.9091   -7.8763 O.3     1  LIG1       -0.3721
     29 O           3.4951    5.5513   -8.5328 O.3     1  LIG1       -0.3803
     30 O           2.0285   -3.2312  -11.6741 O.3     1  LIG1       -0.3803
     31 O           4.7188    5.0184   -3.8362 O.3     1  LIG1       -0.3803
     32 O           4.7930    3.9496  -16.6839 O.3     1  LIG1       -0.3803
     33 O           9.8160   -2.3704   -3.0489 O.3     1  LIG1       -0.3803
     34 O           7.9420   -1.6787  -12.6227 O.3     1  LIG1       -0.3803
     35 O          10.3498    5.3693   -6.1748 O.3     1  LIG1       -0.3803
     36 C           2.4117    2.8441   -8.0256 C.3     1  LIG1        0.1187
     37 C           4.4907    1.8771   -3.4596 C.3     1  LIG1        0.1187
     38 C           1.5432   -0.0032  -12.3561 C.3     1  LIG1        0.1187
     39 C           9.3015    0.4043   -2.1124 C.3     1  LIG1        0.1187
     40 C           4.8326    1.2649  -14.7834 C.3     1  LIG1        0.1187
     41 C           9.1139    2.4950   -6.6605 C.3     1  LIG1        0.1187
     42 C           8.9989    1.9051  -11.7579 C.3     1  LIG1        0.1187
     43 C           1.3239    2.4128   -7.0003 C.3     1  LIG1        0.1177
     44 C           1.1568    1.4285  -11.8953 C.3     1  LIG1        0.1177
     45 C           4.3225    1.2242   -2.0613 C.3     1  LIG1        0.1177
     46 C           4.5439   -0.0394  -15.5625 C.3     1  LIG1        0.1177
     47 C          10.0100    1.7459   -1.8419 C.3     1  LIG1        0.1177
     48 C           7.9345    3.0284  -11.8845 C.3     1  LIG1        0.1177
     49 C           9.4740    1.1592   -7.3456 C.3     1  LIG1        0.1177
     50 C           1.9234    1.7686   -5.7275 C.3     1  LIG1        0.1374
     51 C           0.7946    1.4727  -10.3828 C.3     1  LIG1        0.1374
     52 C           5.5579    0.3526   -1.7512 C.3     1  LIG1        0.1374
     53 C           3.0204   -0.2827  -15.7053 C.3     1  LIG1        0.1374
     54 C          10.3377    2.5765   -3.1112 C.3     1  LIG1        0.1374
     55 C           7.3894    3.1498  -13.3267 C.3     1  LIG1        0.1374
     56 C          10.5185    1.4103   -8.4498 C.3     1  LIG1        0.1374
     57 C           2.9524    2.7783   -5.1607 C.3     1  LIG1        0.1887
     58 C           1.9946    0.9085   -9.5382 C.3     1  LIG1        0.1887
     59 C           6.8435    0.8499   -2.4735 C.3     1  LIG1        0.1887
     60 C           2.2261    0.5084  -14.6388 C.3     1  LIG1        0.1887
     61 C           9.3735    2.2727   -4.2915 C.3     1  LIG1        0.1887
     62 C           6.9391    1.7316  -13.7440 C.3     1  LIG1        0.1887
     63 C           9.9158    2.3596   -9.5190 C.3     1  LIG1        0.1887
     64 C           3.6919    3.4422   -7.3299 C.3     1  LIG1        0.1136
     65 C           2.0327   -0.8388  -11.1538 C.3     1  LIG1        0.1136
     66 C           5.7546    2.7916   -3.4321 C.3     1  LIG1        0.1136
     67 C           3.7800    2.3554  -15.0648 C.3     1  LIG1        0.1136
     68 C           9.5630   -0.0170   -3.5582 C.3     1  LIG1        0.1136
     69 C           8.6801    0.6183  -12.5770 C.3     1  LIG1        0.1136
     70 C           9.1318    3.6988   -7.6377 C.3     1  LIG1        0.1136
     71 C           3.6607    4.9788   -7.2320 C.3     1  LIG1        0.0761
     72 C           2.8646   -2.0791  -11.5117 C.3     1  LIG1        0.0761
     73 C           5.5398    4.2444   -2.9596 C.3     1  LIG1        0.0761
     74 C           3.7793    2.9679  -16.4799 C.3     1  LIG1        0.0761
     75 C           9.0723   -1.4411   -3.8384 C.3     1  LIG1        0.0761
     76 C           7.9024   -0.4836  -11.8192 C.3     1  LIG1        0.0761
     77 C          10.2302    4.7660   -7.4640 C.3     1  LIG1        0.0761
     78 C          -0.6907    3.3421   -6.0631 C.3     1  LIG1        0.0370
     79 C          -0.1033    3.2633  -12.8187 C.3     1  LIG1        0.0370
     80 C           3.7466    1.8685    0.1989 C.3     1  LIG1        0.0370
     81 C           6.2186   -0.7957  -17.1196 C.3     1  LIG1        0.0370
     82 C          12.2160    0.6776   -1.5590 C.3     1  LIG1        0.0370
     83 C           5.9702    3.8169  -10.7540 C.3     1  LIG1        0.0370
     84 C           7.3512    0.0354   -7.0428 C.3     1  LIG1        0.0370
     85 C           1.6215   -0.5753   -6.1293 C.3     1  LIG1        0.0371
     86 C          -1.5838    0.9641  -10.6127 C.3     1  LIG1        0.0371
     87 C           4.8891   -1.4836   -3.2207 C.3     1  LIG1        0.0371
     88 C           3.2145   -2.4964  -16.6249 C.3     1  LIG1        0.0371
     89 C          11.2758    4.4450   -1.9151 C.3     1  LIG1        0.0371
     90 C           9.3942    3.3170  -14.7480 C.3     1  LIG1        0.0371
     91 C          12.8655    1.7495   -8.7295 C.3     1  LIG1        0.0371
     92 C           3.5931    6.9684   -8.4993 C.3     1  LIG1        0.0366
     93 C           1.6576   -3.4678  -13.0236 C.3     1  LIG1        0.0366
     94 C           4.4702    6.3058   -3.2814 C.3     1  LIG1        0.0366
     95 C           5.9596    3.4639  -17.3335 C.3     1  LIG1        0.0366
     96 C           9.2675   -3.6799   -3.1315 C.3     1  LIG1        0.0366
     97 C           7.1272   -2.7086  -12.0873 C.3     1  LIG1        0.0366
     98 C           9.1691    5.9880   -5.6926 C.3     1  LIG1        0.0366
     99 H           1.9789    3.6182   -8.6704 H       1  LIG1        0.0651
    100 H           4.6590    1.0731   -4.1860 H       1  LIG1        0.0651
    101 H           0.6867   -0.5154  -12.8122 H       1  LIG1        0.0651
    102 H           9.7556   -0.3445   -1.4556 H       1  LIG1        0.0651
    103 H           4.6749    1.0018  -13.7321 H       1  LIG1        0.0651
    104 H           8.0821    2.4498   -6.2978 H       1  LIG1        0.0651
    105 H           9.9395    2.2973  -12.1553 H       1  LIG1        0.0651
    106 H           0.6270    1.7246   -7.4837 H       1  LIG1        0.0650
    107 H           2.0068    2.1007  -12.0715 H       1  LIG1        0.0650
    108 H           3.4006    0.6309   -2.0513 H       1  LIG1        0.0650
    109 H           5.0023   -0.8742  -15.0176 H       1  LIG1        0.0650
    110 H           9.3628    2.3484   -1.1937 H       1  LIG1        0.0650
    111 H           8.3955    3.9713  -11.5645 H       1  LIG1        0.0650
    112 H           9.9312    0.4702   -6.6263 H       1  LIG1        0.0650
    113 H           1.1616    1.5979   -4.9599 H       1  LIG1        0.0674
    114 H           0.5340    2.4871  -10.0680 H       1  LIG1        0.0674
    115 H           5.7713    0.4258   -0.6801 H       1  LIG1        0.0674
    116 H           2.6863    0.0662  -16.6915 H       1  LIG1        0.0674
    117 H          11.3554    2.3878   -3.4660 H       1  LIG1        0.0674
    118 H           6.4767    3.7539  -13.3097 H       1  LIG1        0.0674
    119 H          10.7456    0.4404   -8.9134 H       1  LIG1        0.0674
    120 H           2.4744    3.7595   -5.0966 H       1  LIG1        0.0938
    121 H           1.6013    0.2844   -8.7342 H       1  LIG1        0.0938
    122 H           6.9018    0.4005   -3.4636 H       1  LIG1        0.0938
    123 H           1.1589    0.3104  -14.7960 H       1  LIG1        0.0938
    124 H           8.4915    2.9039   -4.1722 H       1  LIG1        0.0938
    125 H           6.3140    1.3402  -12.9390 H       1  LIG1        0.0938
    126 H          10.7047    2.9030  -10.0466 H       1  LIG1        0.0938
    127 H           4.5440    3.1994   -7.9717 H       1  LIG1        0.0647
    128 H           1.1699   -1.1968  -10.5789 H       1  LIG1        0.0647
    129 H           6.1428    2.8393   -4.4564 H       1  LIG1        0.0647
    130 H           3.9827    3.1836  -14.3725 H       1  LIG1        0.0647
    131 H          10.6412   -0.0116   -3.7641 H       1  LIG1        0.0647
    132 H           9.6494    0.1649  -12.8236 H       1  LIG1        0.0647
    133 H           8.1926    4.2307   -7.4349 H       1  LIG1        0.0647
    134 H           4.6037    5.3290   -6.7929 H       1  LIG1        0.0586
    135 H           2.8478    5.3187   -6.5832 H       1  LIG1        0.0586
    136 H           3.5270   -1.9380  -12.3723 H       1  LIG1        0.0586
    137 H           3.5251   -2.3078  -10.6667 H       1  LIG1        0.0586
    138 H           5.1298    4.2661   -1.9453 H       1  LIG1        0.0586
    139 H           6.5216    4.7340   -2.8971 H       1  LIG1        0.0586
    140 H           2.8321    3.5088  -16.6018 H       1  LIG1        0.0586
    141 H           3.7673    2.2141  -17.2731 H       1  LIG1        0.0586
    142 H           9.2232   -1.6807   -4.8966 H       1  LIG1        0.0586
    143 H           8.0027   -1.5391   -3.6302 H       1  LIG1        0.0586
    144 H           8.3729   -0.7146  -10.8580 H       1  LIG1        0.0586
    145 H           6.8591   -0.2053  -11.6464 H       1  LIG1        0.0586
    146 H          10.0742    5.5647   -8.2004 H       1  LIG1        0.0586
    147 H          11.2081    4.3452   -7.7083 H       1  LIG1        0.0586
    148 H          -1.3215    2.7593   -6.7395 H       1  LIG1        0.0524
    149 H          -1.1798    4.3011   -5.8700 H       1  LIG1        0.0524
    150 H          -0.5824    2.8246   -5.1076 H       1  LIG1        0.0524
    151 H          -0.9546    3.4641  -13.4774 H       1  LIG1        0.0524
    152 H           0.7832    3.7376  -13.2462 H       1  LIG1        0.0524
    153 H          -0.3270    3.6864  -11.8368 H       1  LIG1        0.0524
    154 H           3.4699    2.7623    0.7655 H       1  LIG1        0.0524
    155 H           4.5742    1.3902    0.7319 H       1  LIG1        0.0524
    156 H           2.8846    1.2015    0.1512 H       1  LIG1        0.0524
    157 H           5.9167   -1.6146  -17.7809 H       1  LIG1        0.0524
    158 H           6.6506   -1.2112  -16.2038 H       1  LIG1        0.0524
    159 H           6.9830   -0.2122  -17.6392 H       1  LIG1        0.0524
    160 H          13.0843    0.7204   -0.8949 H       1  LIG1        0.0524
    161 H          11.8711   -0.3600   -1.5758 H       1  LIG1        0.0524
    162 H          12.5488    0.9730   -2.5566 H       1  LIG1        0.0524
    163 H           6.5191    4.7528  -10.6146 H       1  LIG1        0.0524
    164 H           5.4045    3.6079   -9.8489 H       1  LIG1        0.0524
    165 H           5.2520    3.9154  -11.5728 H       1  LIG1        0.0524
    166 H           6.7823    0.8656   -6.6187 H       1  LIG1        0.0524
    167 H           7.7834   -0.5778   -6.2531 H       1  LIG1        0.0524
    168 H           6.6492   -0.5897   -7.6047 H       1  LIG1        0.0524
    169 H           1.3195   -0.9008   -5.1303 H       1  LIG1        0.0524
    170 H           0.7319   -0.3076   -6.7079 H       1  LIG1        0.0524
    171 H           2.1215   -1.4071   -6.6353 H       1  LIG1        0.0524
    172 H          -2.3630    0.4433  -10.0484 H       1  LIG1        0.0524
    173 H          -1.7724    2.0377  -10.5525 H       1  LIG1        0.0524
    174 H          -1.6477    0.6054  -11.6430 H       1  LIG1        0.0524
    175 H           5.5806   -1.1782   -4.0073 H       1  LIG1        0.0524
    176 H           3.8830   -1.1154   -3.4337 H       1  LIG1        0.0524
    177 H           4.8493   -2.5764   -3.2161 H       1  LIG1        0.0524
    178 H           3.1243   -2.0275  -17.6085 H       1  LIG1        0.0524
    179 H           4.2586   -2.7280  -16.4000 H       1  LIG1        0.0524
    180 H           2.6635   -3.4410  -16.6379 H       1  LIG1        0.0524
    181 H          11.2543    5.5381   -1.8962 H       1  LIG1        0.0524
    182 H          11.0663    4.0954   -0.9005 H       1  LIG1        0.0524
    183 H          12.2716    4.1222   -2.2341 H       1  LIG1        0.0524
    184 H           9.1835    2.3914  -15.2846 H       1  LIG1        0.0524
    185 H           9.8153    4.0172  -15.4758 H       1  LIG1        0.0524
    186 H          10.1561    3.1706  -13.9820 H       1  LIG1        0.0524
    187 H          12.9832    0.7034   -9.0280 H       1  LIG1        0.0524
    188 H          12.7814    2.3850   -9.6150 H       1  LIG1        0.0524
    189 H          13.7575    2.0538   -8.1753 H       1  LIG1        0.0524
    190 H           2.9026    7.3908   -7.7632 H       1  LIG1        0.0524
    191 H           4.6200    7.2682   -8.2711 H       1  LIG1        0.0524
    192 H           3.3287    7.3535   -9.4879 H       1  LIG1        0.0524
    193 H           2.5401   -3.7180  -13.6186 H       1  LIG1        0.0524
    194 H           0.9739   -4.3212  -13.0419 H       1  LIG1        0.0524
    195 H           1.1393   -2.6078  -13.4506 H       1  LIG1        0.0524
    196 H           3.9534    6.2197   -2.3197 H       1  LIG1        0.0524
    197 H           3.8294    6.8625   -3.9696 H       1  LIG1        0.0524
    198 H           5.4085    6.8550   -3.1546 H       1  LIG1        0.0524
    199 H           6.2006    4.1481  -18.1518 H       1  LIG1        0.0524
    200 H           5.8414    2.4604  -17.7503 H       1  LIG1        0.0524
    201 H           6.7983    3.4812  -16.6352 H       1  LIG1        0.0524
    202 H           9.9023   -4.3564   -2.5532 H       1  LIG1        0.0524
    203 H           8.2597   -3.6972   -2.7047 H       1  LIG1        0.0524
    204 H           9.2434   -4.0218   -4.1705 H       1  LIG1        0.0524
    205 H           7.3476   -2.8778  -11.0300 H       1  LIG1        0.0524
    206 H           6.0722   -2.4546  -12.2207 H       1  LIG1        0.0524
    207 H           7.3358   -3.6293  -12.6397 H       1  LIG1        0.0524
    208 H           8.4199    5.2397   -5.4193 H       1  LIG1        0.0524
    209 H           8.7597    6.6818   -6.4324 H       1  LIG1        0.0524
    210 H           9.4214    6.5493   -4.7886 H       1  LIG1        0.0524
@<TRIPOS>BOND
     1     8    57    1
     2     8    64    1
     3    50    57    1
     4    43    50    1
     5    36    43    1
     6    36    64    1
     7     9    58    1
     8     9    65    1
     9    51    58    1
    10    44    51    1
    11    38    44    1
    12    38    65    1
    13    10    59    1
    14    10    66    1
    15    52    59    1
    16    45    52    1
    17    37    45    1
    18    37    66    1
    19    11    60    1
    20    11    67    1
    21    53    60    1
    22    46    53    1
    23    40    46    1
    24    40    67    1
    25    12    61    1
    26    12    68    1
    27    54    61    1
    28    47    54    1
    29    39    47    1
    30    39    68    1
    31    13    62    1
    32    13    69    1
    33    55    62    1
    34    48    55    1
    35    42    48    1
    36    42    69    1
    37    14    63    1
    38    14    70    1
    39    56    63    1
    40    49    56    1
    41    41    49    1
    42    41    70    1
    43     1    36    1
    44    64    71    1
    45    29    71    1
    46    29    92    1
    47    50    22    1
    48    22    85    1
    49     2    57    1
    50     2    37    1
    51    66    73    1
    52    31    73    1
    53    31    94    1
    54    52    24    1
    55    24    87    1
    56     4    59    1
    57     4    39    1
    58    68    75    1
    59    33    75    1
    60    33    96    1
    61    26    89    1
    62     6    61    1
    63     6    41    1
    64    70    77    1
    65    35    77    1
    66    35    98    1
    67    28    91    1
    68     7    63    1
    69     7    42    1
    70    69    76    1
    71    34    76    1
    72    34    97    1
    73    55    27    1
    74    27    90    1
    75     5    62    1
    76     5    40    1
    77    67    74    1
    78    32    74    1
    79    32    95    1
    80    53    25    1
    81    25    88    1
    82     3    60    1
    83     3    38    1
    84    65    72    1
    85    30    72    1
    86    30    93    1
    87    16    79    1
    88    51    23    1
    89    23    86    1
    90    18    81    1
    91    20    83    1
    92    49    21    1
    93    21    84    1
    94    47    19    1
    95    19    82    1
    96    17    80    1
    97    15    78    1
    98     1    58    1
    99    43    15    1
   100    44    16    1
   101    45    17    1
   102    46    18    1
   103    48    20    1
   104    54    26    1
   105    56    28    1
   106    36    99    1
   107    37   100    1
   108    38   101    1
   109    39   102    1
   110    40   103    1
   111    41   104    1
   112    42   105    1
   113    43   106    1
   114    44   107    1
   115    45   108    1
   116    46   109    1
   117    47   110    1
   118    48   111    1
   119    49   112    1
   120    50   113    1
   121    51   114    1
   122    52   115    1
   123    53   116    1
   124    54   117    1
   125    55   118    1
   126    56   119    1
   127    57   120    1
   128    58   121    1
   129    59   122    1
   130    60   123    1
   131    61   124    1
   132    62   125    1
   133    63   126    1
   134    64   127    1
   135    65   128    1
   136    66   129    1
   137    67   130    1
   138    68   131    1
   139    69   132    1
   140    70   133    1
   141    71   134    1
   142    71   135    1
   143    72   136    1
   144    72   137    1
   145    73   138    1
   146    73   139    1
   147    74   140    1
   148    74   141    1
   149    75   142    1
   150    75   143    1
   151    76   144    1
   152    76   145    1
   153    77   146    1
   154    77   147    1
   155    78   148    1
   156    78   149    1
   157    78   150    1
   158    79   151    1
   159    79   152    1
   160    79   153    1
   161    80   154    1
   162    80   155    1
   163    80   156    1
   164    81   157    1
   165    81   158    1
   166    81   159    1
   167    82   160    1
   168    82   161    1
   169    82   162    1
   170    83   163    1
   171    83   164    1
   172    83   165    1
   173    84   166    1
   174    84   167    1
   175    84   168    1
   176    85   169    1
   177    85   170    1
   178    85   171    1
   179    86   172    1
   180    86   173    1
   181    86   174    1
   182    87   175    1
   183    87   176    1
   184    87   177    1
   185    88   178    1
   186    88   179    1
   187    88   180    1
   188    89   181    1
   189    89   182    1
   190    89   183    1
   191    90   184    1
   192    90   185    1
   193    90   186    1
   194    91   187    1
   195    91   188    1
   196    91   189    1
   197    92   190    1
   198    92   191    1
   199    92   192    1
   200    93   193    1
   201    93   194    1
   202    93   195    1
   203    94   196    1
   204    94   197    1
   205    94   198    1
   206    95   199    1
   207    95   200    1
   208    95   201    1
   209    96   202    1
   210    96   203    1
   211    96   204    1
   212    97   205    1
   213    97   206    1
   214    97   207    1
   215    98   208    1
   216    98   209    1
   217    98   210    1
