@<TRIPOS>MOLECULE
444913
 126 132 0 0 0
SMALL
GASTEIGER

@<TRIPOS>ATOM
      1 O           1.2029    0.1949    0.0208 O.3     1  LIG1       -0.3401
      2 O           1.9715   -0.5062   -5.3445 O.3     1  LIG1       -0.3401
      3 O           4.9524    2.7342    3.5048 O.3     1  LIG1       -0.3401
      4 O           6.4691    0.3254   -1.3145 O.3     1  LIG1       -0.3401
      5 O           9.2285   -1.6550    1.5341 O.3     1  LIG1       -0.3401
      6 O           4.4772   -1.7774    0.9976 O.3     1  LIG1       -0.3401
      7 O           2.6658   -0.0142    2.1366 O.3     1  LIG1       -0.3405
      8 O           2.1716   -2.5875   -3.3448 O.3     1  LIG1       -0.3405
      9 O           6.2391    0.5252    3.8623 O.3     1  LIG1       -0.3405
     10 O           4.9746    1.5444   -3.4239 O.3     1  LIG1       -0.3405
     11 O           7.3562   -3.0504    2.2411 O.3     1  LIG1       -0.3405
     12 O           5.9543   -0.3085    1.7430 O.3     1  LIG1       -0.3405
     13 O           2.1371    1.8349   -2.3113 O.3     1  LIG1       -0.3864
     14 O           2.0786    4.0708    3.1351 O.3     1  LIG1       -0.3864
     15 O           0.6575    0.0556   -2.3790 O.3     1  LIG1       -0.3864
     16 O          10.3822    1.8109    1.3862 O.3     1  LIG1       -0.3864
     17 O           5.2099    3.2819    0.5620 O.3     1  LIG1       -0.3864
     18 O           6.4591   -4.4825   -0.7877 O.3     1  LIG1       -0.3864
     19 O           0.9535    2.9002    0.6881 O.3     1  LIG1       -0.3841
     20 O           5.1188   -0.8751   -4.4419 O.3     1  LIG1       -0.3841
     21 O           7.5487    3.6068    0.8825 O.3     1  LIG1       -0.3841
     22 O           4.3349   -2.4213   -2.8218 O.3     1  LIG1       -0.3841
     23 O           8.5757   -3.0413   -1.2208 O.3     1  LIG1       -0.3841
     24 O           3.2190    1.5143   -0.0436 O.3     1  LIG1       -0.3841
     25 O          -0.1600   -2.2286   -0.1396 O.3     1  LIG1       -0.3924
     26 O           1.0056    0.8044    4.5082 O.3     1  LIG1       -0.3924
     27 O           1.9314    3.8077   -4.5013 O.3     1  LIG1       -0.3924
     28 O           8.6605   -2.5158    4.6806 O.3     1  LIG1       -0.3924
     29 O           9.4550    1.8863    3.4913 O.3     1  LIG1       -0.3924
     30 O           3.9298   -4.2670    2.9984 O.3     1  LIG1       -0.3924
     31 C           2.2160   -0.4486   -0.9212 C.3     1  LIG1        0.1184
     32 C           1.9840    0.7114   -4.4025 C.3     1  LIG1        0.1184
     33 C           3.5057    2.0983    3.4959 C.3     1  LIG1        0.1184
     34 C           6.6844    1.3341   -0.1383 C.3     1  LIG1        0.1184
     35 C           8.9100   -0.4942    2.3791 C.3     1  LIG1        0.1184
     36 C           5.3022   -2.9939    0.7374 C.3     1  LIG1        0.1184
     37 C           3.1227    0.6944   -2.3034 C.3     1  LIG1        0.1144
     38 C           2.5848    2.8676    2.5041 C.3     1  LIG1        0.1144
     39 C           1.8643   -0.4512   -3.1024 C.3     1  LIG1        0.1144
     40 C           9.0527    1.2637    1.4336 C.3     1  LIG1        0.1144
     41 C           5.3921    2.0450   -0.1100 C.3     1  LIG1        0.1144
     42 C           6.2973   -3.0874   -0.4469 C.3     1  LIG1        0.1144
     43 C           1.5156    0.5733    1.4970 C.3     1  LIG1        0.1884
     44 C           2.8101   -1.5289   -4.6071 C.3     1  LIG1        0.1884
     45 C           6.0706    1.9932    2.9250 C.3     1  LIG1        0.1884
     46 C           5.2878    0.1723   -2.4111 C.3     1  LIG1        0.1884
     47 C           8.2732   -2.7310    1.2005 C.3     1  LIG1        0.1884
     48 C           5.0765   -0.5200    0.6799 C.3     1  LIG1        0.1884
     49 C           1.3630    2.1206    1.8425 C.3     1  LIG1        0.1341
     50 C           7.6948    2.6598    1.9493 C.3     1  LIG1        0.1341
     51 C           4.4207    1.0106    0.4576 C.3     1  LIG1        0.1341
     52 C           3.7607   -1.1370   -2.3417 C.3     1  LIG1        0.1341
     53 C           7.6898   -2.4975   -0.2089 C.3     1  LIG1        0.1341
     54 C           3.7987   -0.3027   -4.0738 C.3     1  LIG1        0.1341
     55 C           1.7279   -2.1306   -1.6878 C.3     1  LIG1        0.1134
     56 C           3.1789    0.5302    3.4108 C.3     1  LIG1        0.1134
     57 C           7.3510   -0.7919    3.4927 C.3     1  LIG1        0.1134
     58 C           7.0928    0.5679    1.5581 C.3     1  LIG1        0.1134
     59 C           6.0629   -3.6264    1.9380 C.3     1  LIG1        0.1134
     60 C           3.4954    1.9210   -4.2946 C.3     1  LIG1        0.1134
     61 C           0.2656   -2.5510   -1.4558 C.3     1  LIG1        0.0730
     62 C           3.2038    3.4153   -4.0135 C.3     1  LIG1        0.0730
     63 C           2.2295    0.0819    4.5412 C.3     1  LIG1        0.0730
     64 C           7.7132   -1.4749    4.8495 C.3     1  LIG1        0.0730
     65 C           5.1906   -3.6445    3.2093 C.3     1  LIG1        0.0730
     66 C           8.0982    1.2437    3.3190 C.3     1  LIG1        0.0730
     67 H           1.9194    1.9435   -1.3468 H       1  LIG1        0.2100
     68 H           2.8569    4.5318    3.5029 H       1  LIG1        0.2100
     69 H           0.6658    1.0325   -2.4178 H       1  LIG1        0.2100
     70 H          10.5933    1.9662    2.3304 H       1  LIG1        0.2100
     71 H           6.0307    3.8089    0.4286 H       1  LIG1        0.2100
     72 H           7.2806   -4.5371   -1.3200 H       1  LIG1        0.2100
     73 H           0.7351    3.7795    1.0567 H       1  LIG1        0.2101
     74 H           5.1022   -1.1794   -5.3687 H       1  LIG1        0.2101
     75 H           8.4633    3.8789    0.6501 H       1  LIG1        0.2101
     76 H           3.5993   -3.0642   -2.9118 H       1  LIG1        0.2101
     77 H           8.4297   -2.5242   -2.0360 H       1  LIG1        0.2101
     78 H           3.2473    2.4963   -0.0013 H       1  LIG1        0.2101
     79 H          -0.0996   -1.2507   -0.0773 H       1  LIG1        0.2095
     80 H           0.4131    0.3909    5.1629 H       1  LIG1        0.2095
     81 H           1.2910    3.5650   -3.8074 H       1  LIG1        0.2095
     82 H           8.3496   -3.0715    3.9371 H       1  LIG1        0.2095
     83 H           9.5701    2.0701    4.4486 H       1  LIG1        0.2095
     84 H           3.3625   -3.6139    2.5452 H       1  LIG1        0.2095
     85 H           2.9010   -0.7751   -0.1609 H       1  LIG1        0.0651
     86 H           1.0704    1.2815   -4.5985 H       1  LIG1        0.0651
     87 H           3.2112    2.4016    4.5088 H       1  LIG1        0.0651
     88 H           7.5098    1.9340   -0.5168 H       1  LIG1        0.0651
     89 H           9.7696   -0.4748    3.0690 H       1  LIG1        0.0651
     90 H           4.5084   -3.7166    0.5014 H       1  LIG1        0.0651
     91 H           3.8789    1.2451   -1.8156 H       1  LIG1        0.0648
     92 H           3.2019    3.2956    1.7217 H       1  LIG1        0.0648
     93 H           1.1572   -1.1562   -3.5741 H       1  LIG1        0.0648
     94 H           8.9596    1.0263    0.3676 H       1  LIG1        0.0648
     95 H           5.1751    2.3527   -1.1299 H       1  LIG1        0.0648
     96 H           5.9047   -2.6215   -1.3387 H       1  LIG1        0.0648
     97 H           0.6627    0.0910    1.9884 H       1  LIG1        0.0938
     98 H           3.2360   -2.2350   -5.3261 H       1  LIG1        0.0938
     99 H           5.5452    1.6736    2.1150 H       1  LIG1        0.0938
    100 H           6.0525   -0.3305   -2.9959 H       1  LIG1        0.0938
    101 H           8.9212   -3.6121    1.1246 H       1  LIG1        0.0938
    102 H           5.5805   -0.8285   -0.1919 H       1  LIG1        0.0938
    103 H           0.5140    2.2050    2.5319 H       1  LIG1        0.0671
    104 H           8.1566    3.3505    2.6779 H       1  LIG1        0.0671
    105 H           4.1773    1.2461    1.4524 H       1  LIG1        0.0671
    106 H           3.8725   -1.4371   -1.3181 H       1  LIG1        0.0671
    107 H           7.6915   -1.4364   -0.4178 H       1  LIG1        0.0671
    108 H           3.8625    0.2573   -5.0022 H       1  LIG1        0.0671
    109 H           2.3369   -2.8565   -1.1273 H       1  LIG1        0.0647
    110 H           4.0937   -0.0310    3.5806 H       1  LIG1        0.0647
    111 H           6.6494   -1.4787    3.0862 H       1  LIG1        0.0647
    112 H           7.6595   -0.1758    1.0220 H       1  LIG1        0.0647
    113 H           6.2654   -4.6767    1.6889 H       1  LIG1        0.0647
    114 H           3.8789    1.9714   -5.3320 H       1  LIG1        0.0647
    115 H          -0.4249   -2.1049   -2.1769 H       1  LIG1        0.0584
    116 H           0.1758   -3.6342   -1.5921 H       1  LIG1        0.0584
    117 H           3.9605    4.0207   -4.5272 H       1  LIG1        0.0584
    118 H           3.3077    3.6903   -2.9585 H       1  LIG1        0.0584
    119 H           2.6946    0.2465    5.5184 H       1  LIG1        0.0584
    120 H           1.9945   -0.9824    4.4334 H       1  LIG1        0.0584
    121 H           6.8073   -1.8889    5.3063 H       1  LIG1        0.0584
    122 H           8.1111   -0.7669    5.5829 H       1  LIG1        0.0584
    123 H           5.0048   -2.6409    3.6017 H       1  LIG1        0.0584
    124 H           5.7127   -4.1925    4.0014 H       1  LIG1        0.0584
    125 H           7.5956    1.9819    3.9895 H       1  LIG1        0.0584
    126 H           8.3257    0.5864    4.1553 H       1  LIG1        0.0584
@<TRIPOS>BOND
     1     7    43    1
     2     7    56    1
     3    43    49    1
     4    38    49    1
     5    33    38    1
     6    33    56    1
     7     8    44    1
     8     8    55    1
     9    44    54    1
    10    37    54    1
    11    31    37    1
    12    31    55    1
    13     9    45    1
    14     9    57    1
    15    45    50    1
    16    40    50    1
    17    35    40    1
    18    35    57    1
    19    10    46    1
    20    10    60    1
    21    46    52    1
    22    39    52    1
    23    32    39    1
    24    32    60    1
    25    11    47    1
    26    11    59    1
    27    47    53    1
    28    42    53    1
    29    36    42    1
    30    36    59    1
    31    12    48    1
    32    12    58    1
    33    48    51    1
    34    41    51    1
    35    34    41    1
    36    34    58    1
    37     1    43    1
    38    56    63    1
    39    26    63    1
    40     3    33    1
    41     3    45    1
    42    57    64    1
    43    28    64    1
    44     5    35    1
    45     5    47    1
    46    59    65    1
    47    30    65    1
    48     6    36    1
    49     6    48    1
    50    58    66    1
    51    29    66    1
    52     4    34    1
    53     4    46    1
    54    60    62    1
    55    27    62    1
    56     2    32    1
    57     2    44    1
    58    54    20    1
    59    55    61    1
    60    25    61    1
    61    52    22    1
    62    51    24    1
    63    53    23    1
    64    50    21    1
    65    49    19    1
    66     1    31    1
    67    37    13    1
    68    38    14    1
    69    39    15    1
    70    40    16    1
    71    41    17    1
    72    42    18    1
    73    13    67    1
    74    14    68    1
    75    15    69    1
    76    16    70    1
    77    17    71    1
    78    18    72    1
    79    19    73    1
    80    20    74    1
    81    21    75    1
    82    22    76    1
    83    23    77    1
    84    24    78    1
    85    25    79    1
    86    26    80    1
    87    27    81    1
    88    28    82    1
    89    29    83    1
    90    30    84    1
    91    31    85    1
    92    32    86    1
    93    33    87    1
    94    34    88    1
    95    35    89    1
    96    36    90    1
    97    37    91    1
    98    38    92    1
    99    39    93    1
   100    40    94    1
   101    41    95    1
   102    42    96    1
   103    43    97    1
   104    44    98    1
   105    45    99    1
   106    46   100    1
   107    47   101    1
   108    48   102    1
   109    49   103    1
   110    50   104    1
   111    51   105    1
   112    52   106    1
   113    53   107    1
   114    54   108    1
   115    55   109    1
   116    56   110    1
   117    57   111    1
   118    58   112    1
   119    59   113    1
   120    60   114    1
   121    61   115    1
   122    61   116    1
   123    62   117    1
   124    62   118    1
   125    63   119    1
   126    63   120    1
   127    64   121    1
   128    64   122    1
   129    65   123    1
   130    65   124    1
   131    66   125    1
   132    66   126    1
