@<TRIPOS>MOLECULE
10171019
 189 196 0 0 0
SMALL
GASTEIGER

@<TRIPOS>ATOM
      1 O          -3.2849    2.4547    0.6258 O.3     1  LIG1       -0.3401
      2 O          -0.6166    1.5994    6.0193 O.3     1  LIG1       -0.3401
      3 O          -4.2273   -0.4783   -3.0823 O.3     1  LIG1       -0.3401
      4 O          -4.6352    0.1324    3.7726 O.3     1  LIG1       -0.3401
      5 O          -9.4467   -2.9643   -0.7266 O.3     1  LIG1       -0.3401
      6 O          -7.9641   -4.0603    1.7857 O.3     1  LIG1       -0.3401
      7 O          -4.7834   -0.9934   -0.6901 O.3     1  LIG1       -0.3401
      8 O          -3.1945    2.0550    4.9697 O.3     1  LIG1       -0.3405
      9 O          -4.4320    2.2266   -1.4082 O.3     1  LIG1       -0.3405
     10 O          -2.1852    1.8281    3.5695 O.3     1  LIG1       -0.3405
     11 O          -6.9820   -0.1639   -3.6556 O.3     1  LIG1       -0.3405
     12 O          -5.6559   -3.2581    2.6337 O.3     1  LIG1       -0.3405
     13 O          -6.8903   -2.6903   -0.7796 O.3     1  LIG1       -0.3405
     14 O          -6.6745   -1.3861    0.4412 O.3     1  LIG1       -0.3405
     15 O           0.6644    0.7347    3.3356 O.3     1  LIG1       -0.3721
     16 O          -1.6522    3.1373   -1.9683 O.3     1  LIG1       -0.3721
     17 O          -3.2844   -0.9128    6.7909 O.3     1  LIG1       -0.3721
     18 O          -4.2721   -3.6139   -2.8917 O.3     1  LIG1       -0.3721
     19 O          -9.0213   -2.0653    3.7065 O.3     1  LIG1       -0.3721
     20 O          -9.2635    0.4758    1.5029 O.3     1  LIG1       -0.3721
     21 O          -3.8280   -4.0259    0.6472 O.3     1  LIG1       -0.3721
     22 O          -1.6307   -0.2884    1.0479 O.3     1  LIG1       -0.3864
     23 O          -1.6808   -0.4201   -2.5424 O.3     1  LIG1       -0.3864
     24 O          -2.4692    1.4583    8.3845 O.3     1  LIG1       -0.3864
     25 O          -7.2384   -5.1510   -2.3663 O.3     1  LIG1       -0.3864
     26 O          -6.6967   -0.9296    5.6545 O.3     1  LIG1       -0.3864
     27 O          -6.1294    1.4824    0.7213 O.3     1  LIG1       -0.3864
     28 O          -6.1639   -5.5413    1.1275 O.3     1  LIG1       -0.3864
     29 O          -4.7329    4.5952    4.2270 O.3     1  LIG1       -0.3803
     30 O          -5.8649    3.9599   -3.2050 O.3     1  LIG1       -0.3803
     31 O           0.8063    3.1178    4.3404 O.3     1  LIG1       -0.3803
     32 O          -9.3015    1.2160   -2.1178 O.3     1  LIG1       -0.3803
     33 O          -3.0501   -4.1937    3.5716 O.3     1  LIG1       -0.3803
     34 O          -6.9111   -1.4127   -5.5646 O.3     1  LIG1       -0.3803
     35 O         -11.0443   -1.4214   -1.3737 O.3     1  LIG1       -0.3803
     36 C          -3.2344    1.5993    1.8294 C.3     1  LIG1        0.1184
     37 C          -1.5123    2.6417    6.2714 C.3     1  LIG1        0.1184
     38 C          -3.6611    0.8359   -3.3954 C.3     1  LIG1        0.1184
     39 C          -5.3663   -1.0995    3.6201 C.3     1  LIG1        0.1184
     40 C          -8.7928   -2.7321   -2.4682 C.3     1  LIG1        0.1184
     41 C          -7.8617   -3.8028    0.0401 C.3     1  LIG1        0.1184
     42 C          -5.9296   -0.3351   -1.2824 C.3     1  LIG1        0.1184
     43 C          -1.5996    0.8820    1.8853 C.3     1  LIG1        0.1147
     44 C          -2.1916    0.8983   -2.7832 C.3     1  LIG1        0.1147
     45 C          -2.8024    1.7933    7.0309 C.3     1  LIG1        0.1147
     46 C          -7.2281   -3.8271   -2.8810 C.3     1  LIG1        0.1147
     47 C          -6.7975   -1.0986    4.2279 C.3     1  LIG1        0.1147
     48 C          -6.9484    0.6079   -0.0656 C.3     1  LIG1        0.1147
     49 C          -6.2479   -4.4907    0.1327 C.3     1  LIG1        0.1147
     50 C          -0.7427    0.4533    3.3912 C.3     1  LIG1        0.1372
     51 C          -2.0058    1.8099   -1.5013 C.3     1  LIG1        0.1372
     52 C          -3.4728    0.3772    6.1586 C.3     1  LIG1        0.1372
     53 C          -5.4782   -3.0404   -3.4014 C.3     1  LIG1        0.1372
     54 C          -7.6456   -2.4143    3.9286 C.3     1  LIG1        0.1372
     55 C          -8.1183   -0.2876    1.0935 C.3     1  LIG1        0.1372
     56 C          -5.0215   -3.4746    0.0650 C.3     1  LIG1        0.1372
     57 C          -1.4650    1.0626    5.0266 C.3     1  LIG1        0.1887
     58 C          -3.2998    1.7441   -0.6511 C.3     1  LIG1        0.1887
     59 C          -3.2837    0.3398    4.2636 C.3     1  LIG1        0.1887
     60 C          -5.3705   -1.1016   -3.7933 C.3     1  LIG1        0.1887
     61 C          -7.0442   -3.4624    2.8836 C.3     1  LIG1        0.1887
     62 C          -8.2750   -2.2273    0.7324 C.3     1  LIG1        0.1887
     63 C          -5.2914   -1.8893    0.2812 C.3     1  LIG1        0.1887
     64 C          -3.9570    2.4701    3.3277 C.3     1  LIG1        0.1136
     65 C          -4.3122    2.1590   -2.8601 C.3     1  LIG1        0.1136
     66 C          -1.6297    3.2040    4.6674 C.3     1  LIG1        0.1136
     67 C          -8.6810   -0.9054   -3.2796 C.3     1  LIG1        0.1136
     68 C          -4.8895   -2.5715    3.6859 C.3     1  LIG1        0.1136
     69 C          -6.6769   -1.6564   -2.2309 C.3     1  LIG1        0.1136
     70 C          -8.2010   -1.7371   -0.7873 C.3     1  LIG1        0.1136
     71 C          -4.1138    3.9879    3.0829 C.3     1  LIG1        0.0761
     72 C          -5.6428    2.5698   -3.5023 C.3     1  LIG1        0.0761
     73 C          -0.3621    3.8792    4.1049 C.3     1  LIG1        0.0761
     74 C          -9.6364    0.3082   -3.1441 C.3     1  LIG1        0.0761
     75 C          -3.3915   -2.8077    3.4894 C.3     1  LIG1        0.0761
     76 C          -7.2282   -2.0850   -4.2303 C.3     1  LIG1        0.0761
     77 C         -10.0059   -1.0497   -0.4191 C.3     1  LIG1        0.0761
     78 C           1.3714    0.1860    2.2418 C.3     1  LIG1        0.0371
     79 C          -1.6277    4.1406   -0.9612 C.3     1  LIG1        0.0371
     80 C          -1.9750   -1.3534    7.1250 C.3     1  LIG1        0.0371
     81 C          -4.2251   -5.0425   -3.0111 C.3     1  LIG1        0.0371
     82 C          -9.9254   -3.1212    4.0213 C.3     1  LIG1        0.0371
     83 C          -8.9420    1.8436    1.7450 C.3     1  LIG1        0.0371
     84 C          -2.6491   -3.6744   -0.0538 C.3     1  LIG1        0.0371
     85 C          -5.0562    5.9603    4.0025 C.3     1  LIG1        0.0366
     86 C          -7.0358    4.4621   -3.8261 C.3     1  LIG1        0.0366
     87 C           2.0008    3.7282    3.8923 C.3     1  LIG1        0.0366
     88 C         -10.3227    2.1950   -1.9348 C.3     1  LIG1        0.0366
     89 C          -1.6556   -4.3886    3.3657 C.3     1  LIG1        0.0366
     90 C          -7.5205   -0.2433   -6.0990 C.3     1  LIG1        0.0366
     91 C         -12.3399   -1.0328   -0.9144 C.3     1  LIG1        0.0366
     92 H          -0.7847   -0.3416    0.5727 H       1  LIG1        0.2100
     93 H          -2.4652   -1.0092   -2.5080 H       1  LIG1        0.2100
     94 H          -1.5293    1.2135    8.3915 H       1  LIG1        0.2100
     95 H          -8.1613   -5.4174   -2.2026 H       1  LIG1        0.2100
     96 H          -6.4763    0.0095    5.7975 H       1  LIG1        0.2100
     97 H          -5.5609    1.9576    0.0805 H       1  LIG1        0.2100
     98 H          -7.0316   -5.5239    1.5711 H       1  LIG1        0.2100
     99 H          -3.9132    0.7603    1.6529 H       1  LIG1        0.0651
    100 H          -1.0836    3.3899    6.9452 H       1  LIG1        0.0651
    101 H          -3.5732    0.8802   -4.4874 H       1  LIG1        0.0651
    102 H          -5.6268   -0.9516    2.5836 H       1  LIG1        0.0651
    103 H          -9.6409   -3.2242   -2.9656 H       1  LIG1        0.0651
    104 H          -8.5404   -4.6164   -0.2986 H       1  LIG1        0.0651
    105 H          -5.6370    0.4684   -1.9139 H       1  LIG1        0.0651
    106 H          -0.9626    1.6286    1.3897 H       1  LIG1        0.0648
    107 H          -1.5512    1.3314   -3.5639 H       1  LIG1        0.0648
    108 H          -3.6286    2.5165    7.1133 H       1  LIG1        0.0648
    109 H          -7.5815   -4.2144   -3.8532 H       1  LIG1        0.0648
    110 H          -7.3499   -0.2089    3.9137 H       1  LIG1        0.0648
    111 H          -7.5674    1.2639   -0.6771 H       1  LIG1        0.0648
    112 H          -6.1121   -5.1123   -0.7337 H       1  LIG1        0.0648
    113 H          -0.8042   -0.6422    3.4629 H       1  LIG1        0.0674
    114 H          -1.1487    1.4559   -0.9216 H       1  LIG1        0.0674
    115 H          -4.5513    0.5335    6.2778 H       1  LIG1        0.0674
    116 H          -5.3053   -3.4223   -4.4283 H       1  LIG1        0.0674
    117 H          -7.6217   -2.9395    4.8958 H       1  LIG1        0.0674
    118 H          -7.5374   -0.3008    2.0095 H       1  LIG1        0.0674
    119 H          -4.7975   -3.4874   -0.9768 H       1  LIG1        0.0674
    120 H          -1.6243    0.0800    5.4385 H       1  LIG1        0.0938
    121 H          -3.4713    0.6983   -0.4350 H       1  LIG1        0.0938
    122 H          -2.7174   -0.5077    3.9138 H       1  LIG1        0.0938
    123 H          -5.0745   -0.9870   -4.8428 H       1  LIG1        0.0938
    124 H          -7.0140   -4.3635    3.5114 H       1  LIG1        0.0938
    125 H          -9.1107   -2.7059    1.3021 H       1  LIG1        0.0938
    126 H          -4.7041   -1.6220    1.1469 H       1  LIG1        0.0938
    127 H          -4.9858    2.1385    3.5032 H       1  LIG1        0.0647
    128 H          -3.6436    2.9818   -3.1409 H       1  LIG1        0.0647
    129 H          -2.4113    3.9623    4.6518 H       1  LIG1        0.0647
    130 H          -9.0662   -1.1067   -4.2904 H       1  LIG1        0.0647
    131 H          -5.1540   -3.0371    4.6439 H       1  LIG1        0.0647
    132 H          -7.3635   -0.8870   -2.1159 H       1  LIG1        0.0647
    133 H          -8.1411   -0.6736   -0.7860 H       1  LIG1        0.0647
    134 H          -3.1601    4.4806    2.8694 H       1  LIG1        0.0586
    135 H          -4.7579    4.1385    2.2087 H       1  LIG1        0.0586
    136 H          -5.5966    2.4433   -4.5891 H       1  LIG1        0.0586
    137 H          -6.4857    2.0231   -3.0851 H       1  LIG1        0.0586
    138 H          -0.4814    4.0580    3.0323 H       1  LIG1        0.0586
    139 H          -0.2359    4.8401    4.6193 H       1  LIG1        0.0586
    140 H          -9.5554    0.8922   -4.0714 H       1  LIG1        0.0586
    141 H         -10.6762   -0.0235   -3.0988 H       1  LIG1        0.0586
    142 H          -3.0519   -2.3960    2.5349 H       1  LIG1        0.0586
    143 H          -2.8503   -2.3416    4.3113 H       1  LIG1        0.0586
    144 H          -6.8383   -2.9748   -4.7134 H       1  LIG1        0.0586
    145 H          -8.2241   -2.5231   -4.4256 H       1  LIG1        0.0586
    146 H         -10.3608   -1.3385    0.5823 H       1  LIG1        0.0586
    147 H          -9.9822    0.0316   -0.4599 H       1  LIG1        0.0586
    148 H           0.9737    0.5302    1.2857 H       1  LIG1        0.0524
    149 H           1.3731   -0.9058    2.2879 H       1  LIG1        0.0524
    150 H           2.4053    0.5398    2.2973 H       1  LIG1        0.0524
    151 H          -1.1018    3.7991   -0.0652 H       1  LIG1        0.0524
    152 H          -2.6445    4.4653   -0.7208 H       1  LIG1        0.0524
    153 H          -1.0969    5.0104   -1.3597 H       1  LIG1        0.0524
    154 H          -2.0456   -2.0822    7.9368 H       1  LIG1        0.0524
    155 H          -1.3118   -0.5560    7.4631 H       1  LIG1        0.0524
    156 H          -1.5189   -1.8610    6.2688 H       1  LIG1        0.0524
    157 H          -3.1779   -5.3549   -2.9815 H       1  LIG1        0.0524
    158 H          -4.6667   -5.3999   -3.9460 H       1  LIG1        0.0524
    159 H          -4.7207   -5.5191   -2.1667 H       1  LIG1        0.0524
    160 H         -10.9001   -2.6785    4.2425 H       1  LIG1        0.0524
    161 H          -9.6038   -3.6955    4.8958 H       1  LIG1        0.0524
    162 H         -10.0451   -3.7887    3.1654 H       1  LIG1        0.0524
    163 H          -8.7076    2.3608    0.8106 H       1  LIG1        0.0524
    164 H          -8.1082    1.9368    2.4469 H       1  LIG1        0.0524
    165 H          -9.8184    2.3359    2.1717 H       1  LIG1        0.0524
    166 H          -2.6815   -4.0100   -1.0885 H       1  LIG1        0.0524
    167 H          -1.8078   -4.1958    0.4038 H       1  LIG1        0.0524
    168 H          -2.4819   -2.5985   -0.0080 H       1  LIG1        0.0524
    169 H          -5.5130    6.3601    4.9128 H       1  LIG1        0.0524
    170 H          -4.1536    6.5382    3.7836 H       1  LIG1        0.0524
    171 H          -5.7761    6.0563    3.1841 H       1  LIG1        0.0524
    172 H          -7.8877    3.7935   -3.6716 H       1  LIG1        0.0524
    173 H          -6.8531    4.6020   -4.8950 H       1  LIG1        0.0524
    174 H          -7.2683    5.4335   -3.3811 H       1  LIG1        0.0524
    175 H           2.2638    4.5577    4.5535 H       1  LIG1        0.0524
    176 H           1.9079    4.0751    2.8595 H       1  LIG1        0.0524
    177 H           2.8007    2.9827    3.9376 H       1  LIG1        0.0524
    178 H         -10.2652    2.9468   -2.7239 H       1  LIG1        0.0524
    179 H         -10.1710    2.6763   -0.9665 H       1  LIG1        0.0524
    180 H         -11.3175    1.7397   -1.9300 H       1  LIG1        0.0524
    181 H          -1.0886   -3.9700    4.2025 H       1  LIG1        0.0524
    182 H          -1.3172   -3.9120    2.4426 H       1  LIG1        0.0524
    183 H          -1.4550   -5.4603    3.2999 H       1  LIG1        0.0524
    184 H          -7.2937   -0.2204   -7.1697 H       1  LIG1        0.0524
    185 H          -7.0731    0.6712   -5.6952 H       1  LIG1        0.0524
    186 H          -8.6043   -0.2302   -6.0012 H       1  LIG1        0.0524
    187 H         -13.0893   -1.6241   -1.4483 H       1  LIG1        0.0524
    188 H         -12.5121    0.0213   -1.1435 H       1  LIG1        0.0524
    189 H         -12.4698   -1.2012    0.1594 H       1  LIG1        0.0524
@<TRIPOS>BOND
     1     8    57    1
     2     8    64    1
     3    50    57    1
     4    43    50    1
     5    36    43    1
     6    36    64    1
     7     9    58    1
     8     9    65    1
     9    51    58    1
    10    44    51    1
    11    38    44    1
    12    38    65    1
    13    10    59    1
    14    10    66    1
    15    52    59    1
    16    45    52    1
    17    37    45    1
    18    37    66    1
    19    11    60    1
    20    11    67    1
    21    53    60    1
    22    46    53    1
    23    40    46    1
    24    40    67    1
    25    12    61    1
    26    12    68    1
    27    54    61    1
    28    47    54    1
    29    39    47    1
    30    39    68    1
    31    13    62    1
    32    13    69    1
    33    55    62    1
    34    48    55    1
    35    42    48    1
    36    42    69    1
    37    14    63    1
    38    14    70    1
    39    56    63    1
    40    49    56    1
    41    41    49    1
    42    41    70    1
    43     1    58    1
    44    30    72    1
    45    30    86    1
    46     3    38    1
    47     3    60    1
    48    32    74    1
    49    32    88    1
    50     5    40    1
    51     5    62    1
    52    34    76    1
    53    34    90    1
    54     7    42    1
    55     7    63    1
    56    35    77    1
    57    35    91    1
    58     6    41    1
    59     6    61    1
    60    33    75    1
    61    33    89    1
    62     4    39    1
    63     4    59    1
    64    31    73    1
    65    31    87    1
    66     2    37    1
    67     2    57    1
    68    15    78    1
    69    29    71    1
    70    29    85    1
    71    17    80    1
    72    19    82    1
    73    21    84    1
    74    20    83    1
    75    18    81    1
    76    16    79    1
    77     1    36    1
    78    43    22    1
    79    47    26    1
    80    48    27    1
    81    51    16    1
    82    52    17    1
    83    53    18    1
    84    56    21    1
    85    64    71    1
    86    68    75    1
    87    69    76    1
    88    44    23    1
    89    45    24    1
    90    46    25    1
    91    49    28    1
    92    50    15    1
    93    54    19    1
    94    55    20    1
    95    65    72    1
    96    66    73    1
    97    67    74    1
    98    70    77    1
    99    22    92    1
   100    23    93    1
   101    24    94    1
   102    25    95    1
   103    26    96    1
   104    27    97    1
   105    28    98    1
   106    36    99    1
   107    37   100    1
   108    38   101    1
   109    39   102    1
   110    40   103    1
   111    41   104    1
   112    42   105    1
   113    43   106    1
   114    44   107    1
   115    45   108    1
   116    46   109    1
   117    47   110    1
   118    48   111    1
   119    49   112    1
   120    50   113    1
   121    51   114    1
   122    52   115    1
   123    53   116    1
   124    54   117    1
   125    55   118    1
   126    56   119    1
   127    57   120    1
   128    58   121    1
   129    59   122    1
   130    60   123    1
   131    61   124    1
   132    62   125    1
   133    63   126    1
   134    64   127    1
   135    65   128    1
   136    66   129    1
   137    67   130    1
   138    68   131    1
   139    69   132    1
   140    70   133    1
   141    71   134    1
   142    71   135    1
   143    72   136    1
   144    72   137    1
   145    73   138    1
   146    73   139    1
   147    74   140    1
   148    74   141    1
   149    75   142    1
   150    75   143    1
   151    76   144    1
   152    76   145    1
   153    77   146    1
   154    77   147    1
   155    78   148    1
   156    78   149    1
   157    78   150    1
   158    79   151    1
   159    79   152    1
   160    79   153    1
   161    80   154    1
   162    80   155    1
   163    80   156    1
   164    81   157    1
   165    81   158    1
   166    81   159    1
   167    82   160    1
   168    82   161    1
   169    82   162    1
   170    83   163    1
   171    83   164    1
   172    83   165    1
   173    84   166    1
   174    84   167    1
   175    84   168    1
   176    85   169    1
   177    85   170    1
   178    85   171    1
   179    86   172    1
   180    86   173    1
   181    86   174    1
   182    87   175    1
   183    87   176    1
   184    87   177    1
   185    88   178    1
   186    88   179    1
   187    88   180    1
   188    89   181    1
   189    89   182    1
   190    89   183    1
   191    90   184    1
   192    90   185    1
   193    90   186    1
   194    91   187    1
   195    91   188    1
   196    91   189    1
