@<TRIPOS>MOLECULE
702
 9 8 0 0 0
SMALL
GASTEIGER

@<TRIPOS>ATOM
      1 O           1.0272    0.0952   -0.0478 O.3     1  LIG1       -0.3953
      2 C           0.5462    0.0465   -1.3836 C.3     1  LIG1        0.0414
      3 C           1.0487    1.2614   -2.1324 C.3     1  LIG1       -0.0418
      4 H           0.6887   -0.6957    0.4059 H       1  LIG1        0.2094
      5 H          -0.5470    0.0327   -1.3638 H       1  LIG1        0.0554
      6 H           0.9082   -0.8717   -1.8547 H       1  LIG1        0.0554
      7 H           0.7074    2.1830   -1.6481 H       1  LIG1        0.0252
      8 H           0.6960    1.2560   -3.1679 H       1  LIG1        0.0252
      9 H           2.1440    1.2901   -2.1328 H       1  LIG1        0.0252
@<TRIPOS>BOND
     1     1     2    1
     2     2     3    1
     3     1     4    1
     4     2     5    1
     5     2     6    1
     6     3     7    1
     7     3     8    1
     8     3     9    1
