@<TRIPOS>MOLECULE
5287407
 168 176 0 0 0
SMALL
GASTEIGER

@<TRIPOS>ATOM
      1 O           0.8899    2.8398   -2.0899 O.3     1  LIG1       -0.3401
      2 O           0.0858   -0.2043   -1.3194 O.3     1  LIG1       -0.3401
      3 O           2.3498   -0.4887   -7.0003 O.3     1  LIG1       -0.3401
      4 O           3.9310    1.8005    2.2831 O.3     1  LIG1       -0.3401
      5 O           7.4300   -1.5114   -5.2519 O.3     1  LIG1       -0.3401
      6 O           5.8904    3.4072    6.6012 O.3     1  LIG1       -0.3401
      7 O          10.4429   -2.3990   -0.7147 O.3     1  LIG1       -0.3401
      8 O           6.4586   -0.5432    2.5225 O.3     1  LIG1       -0.3401
      9 O          -0.8279   -0.2826   -3.4469 O.3     1  LIG1       -0.3405
     10 O           1.6945    1.4568   -0.3426 O.3     1  LIG1       -0.3405
     11 O           2.2930    1.0095   -4.5726 O.3     1  LIG1       -0.3405
     12 O           5.2302   -2.2416   -5.5333 O.3     1  LIG1       -0.3405
     13 O           5.8700    1.4491    4.2007 O.3     1  LIG1       -0.3405
     14 O           9.7744   -1.1106   -2.6052 O.3     1  LIG1       -0.3405
     15 O           4.3824    1.5665    5.1466 O.3     1  LIG1       -0.3405
     16 O           8.3793   -1.9926    2.4045 O.3     1  LIG1       -0.3405
     17 O          -1.6576    3.5039   -2.4331 O.3     1  LIG1       -0.3864
     18 O           1.1203   -3.3384   -3.1500 O.3     1  LIG1       -0.3864
     19 O           3.2845    4.6479    1.5362 O.3     1  LIG1       -0.3864
     20 O           4.7099    0.5917   -8.6675 O.3     1  LIG1       -0.3864
     21 O           2.3877    2.5531    6.8481 O.3     1  LIG1       -0.3864
     22 O           6.3983   -3.6028   -3.2524 O.3     1  LIG1       -0.3864
     23 O           8.3357   -0.0814    5.7424 O.3     1  LIG1       -0.3864
     24 O          10.8320    0.4852    0.6648 O.3     1  LIG1       -0.3864
     25 O          -3.2895    0.9352   -2.1621 O.3     1  LIG1       -0.3841
     26 O           1.8611    4.8887   -0.8832 O.3     1  LIG1       -0.3841
     27 O          -0.8917   -1.3981   -5.6864 O.3     1  LIG1       -0.3841
     28 O           7.0693    0.5649   -7.1678 O.3     1  LIG1       -0.3841
     29 O           3.3165    4.7069    4.2243 O.3     1  LIG1       -0.3841
     30 O           8.2474   -4.2897   -1.3558 O.3     1  LIG1       -0.3841
     31 O           7.9588    2.9838    3.5500 O.3     1  LIG1       -0.3841
     32 O           7.7522    1.1863    0.6580 O.3     1  LIG1       -0.3841
     33 O           3.5243   -0.6803   -4.4963 O.3     1  LIG1       -0.3924
     34 O           4.7974   -0.2112   -2.5168 O.3     1  LIG1       -0.3924
     35 O           0.9575    0.1277    3.0082 O.3     1  LIG1       -0.3924
     36 O           3.4930   -3.9060   -8.2855 O.3     1  LIG1       -0.3924
     37 O           6.2259   -0.1746    8.1898 O.3     1  LIG1       -0.3924
     38 O           7.0123    1.2912   -3.1124 O.3     1  LIG1       -0.3924
     39 O           3.8555   -2.3442    4.1265 O.3     1  LIG1       -0.3924
     40 O          10.6947   -4.6203    1.2181 O.3     1  LIG1       -0.3924
     41 C           0.2067    2.0066   -3.0983 C.3     1  LIG1        0.1184
     42 C           1.1857   -0.7920   -2.0547 C.3     1  LIG1        0.1184
     43 C           2.6737    2.3043    1.7629 C.3     1  LIG1        0.1184
     44 C           3.6493   -1.0709   -7.2264 C.3     1  LIG1        0.1184
     45 C           4.9518    2.4399    6.9599 C.3     1  LIG1        0.1184
     46 C           7.5495   -1.5351   -3.8048 C.3     1  LIG1        0.1184
     47 C           6.4445   -0.5099    3.9794 C.3     1  LIG1        0.1184
     48 C          10.0470   -1.8143    0.5442 C.3     1  LIG1        0.1184
     49 C          -1.3263    2.1842   -2.8858 C.3     1  LIG1        0.1144
     50 C           0.4454   -2.0722   -3.3291 C.3     1  LIG1        0.1144
     51 C           2.8633    3.4832    0.7977 C.3     1  LIG1        0.1144
     52 C           4.7237    0.0224   -7.3422 C.3     1  LIG1        0.1144
     53 C           3.5663    3.1647    6.2969 C.3     1  LIG1        0.1144
     54 C           7.6901   -2.9614   -3.2953 C.3     1  LIG1        0.1144
     55 C           7.7645    0.5228    4.5532 C.3     1  LIG1        0.1144
     56 C           9.6593   -0.3314    0.4273 C.3     1  LIG1        0.1144
     57 C          -1.1134   -0.1569   -2.0613 C.3     1  LIG1        0.1884
     58 C           0.9041    2.5927   -0.6549 C.3     1  LIG1        0.1884
     59 C           1.6173   -0.1586   -5.8040 C.3     1  LIG1        0.1884
     60 C           4.5722    2.4834    3.3999 C.3     1  LIG1        0.1884
     61 C           6.1029   -1.1213   -5.6714 C.3     1  LIG1        0.1884
     62 C           5.8262    2.9284    5.2609 C.3     1  LIG1        0.1884
     63 C           9.6654   -2.3640   -1.9282 C.3     1  LIG1        0.1884
     64 C           7.6023   -0.9753    1.7881 C.3     1  LIG1        0.1884
     65 C          -1.8887    1.1502   -1.8926 C.3     1  LIG1        0.1341
     66 C           1.5548    3.8286    0.0424 C.3     1  LIG1        0.1341
     67 C           0.4476   -1.5763   -5.1994 C.3     1  LIG1        0.1341
     68 C           6.1292   -0.5204   -7.0750 C.3     1  LIG1        0.1341
     69 C           3.4105    3.3097    4.5577 C.3     1  LIG1        0.1341
     70 C           8.2489   -2.9497   -1.8696 C.3     1  LIG1        0.1341
     71 C           7.5617    2.3196    4.7702 C.3     1  LIG1        0.1341
     72 C           8.5237    0.1721    1.3295 C.3     1  LIG1        0.1341
     73 C           0.5222    0.2956   -3.7657 C.3     1  LIG1        0.1134
     74 C           2.4109    0.5930   -2.7729 C.3     1  LIG1        0.1134
     75 C           1.9546    1.1485    1.0255 C.3     1  LIG1        0.1134
     76 C           4.1299   -2.3638   -6.4763 C.3     1  LIG1        0.1134
     77 C           5.8792    1.1186    6.1417 C.3     1  LIG1        0.1134
     78 C           8.6556   -0.5647   -3.3263 C.3     1  LIG1        0.1134
     79 C           4.6898   -0.0583    4.3884 C.3     1  LIG1        0.1134
     80 C           9.1139   -2.7176    1.3964 C.3     1  LIG1        0.1134
     81 C           2.1942   -0.9953   -3.9551 C.3     1  LIG1        0.0730
     82 C           3.8388    0.7644   -2.1734 C.3     1  LIG1        0.0730
     83 C           0.6783    0.6644    1.7273 C.3     1  LIG1        0.0730
     84 C           4.5604   -3.4897   -7.4487 C.3     1  LIG1        0.0730
     85 C           5.5801   -0.1994    6.9048 C.3     1  LIG1        0.0730
     86 C           8.0474    0.5641   -2.4618 C.3     1  LIG1        0.0730
     87 C           3.6749   -1.1263    4.8402 C.3     1  LIG1        0.0730
     88 C           9.9142   -3.8305    2.1040 C.3     1  LIG1        0.0730
     89 H          -1.2372    4.1363   -3.0420 H       1  LIG1        0.2100
     90 H           0.6846   -3.9786   -3.7436 H       1  LIG1        0.2100
     91 H           3.2229    5.3833    0.8868 H       1  LIG1        0.2100
     92 H           5.4819    1.1903   -8.6948 H       1  LIG1        0.2100
     93 H           1.6395    3.0868    6.5277 H       1  LIG1        0.2100
     94 H           5.9310   -3.3589   -4.0819 H       1  LIG1        0.2100
     95 H           8.6667   -0.9575    5.4646 H       1  LIG1        0.2100
     96 H          11.5105    0.1977    0.0243 H       1  LIG1        0.2100
     97 H          -3.3995    0.7502   -3.1109 H       1  LIG1        0.2101
     98 H           1.5536    4.5673   -1.7575 H       1  LIG1        0.2101
     99 H          -1.3915   -0.9828   -4.9584 H       1  LIG1        0.2101
    100 H           7.9053    0.2256   -6.7937 H       1  LIG1        0.2101
    101 H           3.3447    4.7737    3.2437 H       1  LIG1        0.2101
    102 H           7.3840   -4.6616   -1.6398 H       1  LIG1        0.2101
    103 H           8.9099    2.8054    3.4389 H       1  LIG1        0.2101
    104 H           7.1142    1.5054    1.3323 H       1  LIG1        0.2101
    105 H           4.1775   -0.9506   -3.8149 H       1  LIG1        0.2095
    106 H           5.5746    0.3380   -2.7716 H       1  LIG1        0.2095
    107 H           1.4250   -0.7160    2.8625 H       1  LIG1        0.2095
    108 H           3.8552   -4.5622   -8.9073 H       1  LIG1        0.2095
    109 H           7.1839   -0.0742    8.0343 H       1  LIG1        0.2095
    110 H           6.9512    2.1391   -2.6242 H       1  LIG1        0.2095
    111 H           3.2272   -2.9866    4.5027 H       1  LIG1        0.2095
    112 H          10.1866   -4.7531    0.3952 H       1  LIG1        0.2095
    113 H           0.4350    2.6015   -3.9958 H       1  LIG1        0.0651
    114 H           1.7713   -1.3553   -1.3116 H       1  LIG1        0.0651
    115 H           2.0288    2.6158    2.5780 H       1  LIG1        0.0651
    116 H           3.5018   -1.4123   -8.2600 H       1  LIG1        0.0651
    117 H           4.8917    2.2867    8.0410 H       1  LIG1        0.0651
    118 H           6.6071   -1.1968   -3.3925 H       1  LIG1        0.0651
    119 H           6.5958   -1.5312    4.3480 H       1  LIG1        0.0651
    120 H          10.9962   -1.8068    1.0994 H       1  LIG1        0.0651
    121 H          -1.8285    2.0651   -3.8539 H       1  LIG1        0.0648
    122 H          -0.5842   -2.3300   -3.0531 H       1  LIG1        0.0648
    123 H           3.6733    3.2726    0.0886 H       1  LIG1        0.0648
    124 H           4.4928    0.8560   -6.6689 H       1  LIG1        0.0648
    125 H           3.5677    4.2006    6.6646 H       1  LIG1        0.0648
    126 H           8.3039   -3.5718   -3.9648 H       1  LIG1        0.0648
    127 H           8.5807    0.4412    3.8551 H       1  LIG1        0.0648
    128 H           9.4163   -0.0942   -0.5901 H       1  LIG1        0.0648
    129 H          -1.7503   -0.9949   -1.7571 H       1  LIG1        0.0938
    130 H          -0.1142    2.4691   -0.2895 H       1  LIG1        0.0938
    131 H           0.9214    0.5469   -6.2853 H       1  LIG1        0.0938
    132 H           5.2054    3.2353    2.9087 H       1  LIG1        0.0938
    133 H           5.7871   -0.3079   -5.0125 H       1  LIG1        0.0938
    134 H           5.6034    3.8201    4.6592 H       1  LIG1        0.0938
    135 H          10.2326   -3.0508   -2.5686 H       1  LIG1        0.0938
    136 H           7.1418   -1.3895    0.8824 H       1  LIG1        0.0938
    137 H          -1.8465    1.5007   -0.8592 H       1  LIG1        0.0671
    138 H           0.8331    4.2513    0.7518 H       1  LIG1        0.0671
    139 H           0.7929   -2.4680   -5.7464 H       1  LIG1        0.0671
    140 H           6.4311   -1.2497   -7.8327 H       1  LIG1        0.0671
    141 H           2.4207    2.8901    4.3684 H       1  LIG1        0.0671
    142 H           7.6012   -2.3572   -1.2146 H       1  LIG1        0.0671
    143 H           8.2445    2.6549    5.5636 H       1  LIG1        0.0671
    144 H           9.0066    0.6949    2.1468 H       1  LIG1        0.0671
    145 H           0.1846    0.6394   -4.7373 H       1  LIG1        0.0647
    146 H           2.1168    1.5346   -2.4474 H       1  LIG1        0.0647
    147 H           2.6387    0.2894    1.0041 H       1  LIG1        0.0647
    148 H           3.2848   -2.7876   -5.9303 H       1  LIG1        0.0647
    149 H           6.8958    1.3559    6.4702 H       1  LIG1        0.0647
    150 H           9.0788   -0.0704   -4.2094 H       1  LIG1        0.0647
    151 H           4.2999    0.0991    3.3826 H       1  LIG1        0.0647
    152 H           8.3874   -3.2229    0.7614 H       1  LIG1        0.0647
    153 H           2.1356   -1.9312   -4.5123 H       1  LIG1        0.0584
    154 H           2.5780   -1.5240   -3.0567 H       1  LIG1        0.0584
    155 H           4.2244    1.7397   -2.5013 H       1  LIG1        0.0584
    156 H           3.8088    0.7727   -1.0845 H       1  LIG1        0.0584
    157 H           0.1800   -0.1119    1.1399 H       1  LIG1        0.0584
    158 H          -0.0401    1.4807    1.8438 H       1  LIG1        0.0584
    159 H           4.8987   -4.3610   -6.8720 H       1  LIG1        0.0584
    160 H           5.4054   -3.1821   -8.0702 H       1  LIG1        0.0584
    161 H           5.9184   -1.1110    6.4152 H       1  LIG1        0.0584
    162 H           4.5225   -0.2494    7.1576 H       1  LIG1        0.0584
    163 H           7.5994    0.1277   -1.5660 H       1  LIG1        0.0584
    164 H           8.8289    1.2692   -2.1565 H       1  LIG1        0.0584
    165 H           2.6656   -0.7553    4.6449 H       1  LIG1        0.0584
    166 H           3.6802   -1.3723    5.8963 H       1  LIG1        0.0584
    167 H           9.2343   -4.4938    2.6492 H       1  LIG1        0.0584
    168 H          10.5854   -3.3976    2.8556 H       1  LIG1        0.0584
@<TRIPOS>BOND
     1     9    57    1
     2     9    73    1
     3    57    65    1
     4    49    65    1
     5    41    49    1
     6    41    73    1
     7    10    58    1
     8    10    75    1
     9    58    66    1
    10    51    66    1
    11    43    51    1
    12    43    75    1
    13    11    59    1
    14    11    74    1
    15    59    67    1
    16    50    67    1
    17    42    50    1
    18    42    74    1
    19    12    61    1
    20    12    76    1
    21    61    68    1
    22    52    68    1
    23    44    52    1
    24    44    76    1
    25    13    60    1
    26    13    77    1
    27    60    69    1
    28    53    69    1
    29    45    53    1
    30    45    77    1
    31    14    63    1
    32    14    78    1
    33    63    70    1
    34    54    70    1
    35    46    54    1
    36    46    78    1
    37    15    62    1
    38    15    79    1
    39    62    71    1
    40    55    71    1
    41    47    55    1
    42    47    79    1
    43    16    64    1
    44    16    80    1
    45    64    72    1
    46    56    72    1
    47    48    56    1
    48    48    80    1
    49     1    58    1
    50    75    83    1
    51    35    83    1
    52     4    43    1
    53     4    60    1
    54    77    85    1
    55    37    85    1
    56     6    45    1
    57     6    62    1
    58    79    87    1
    59    39    87    1
    60     8    47    1
    61     8    64    1
    62    80    88    1
    63    40    88    1
    64     7    48    1
    65     7    63    1
    66    78    86    1
    67    38    86    1
    68     5    46    1
    69     5    61    1
    70    76    84    1
    71    36    84    1
    72     3    44    1
    73     3    59    1
    74    74    82    1
    75    34    82    1
    76     2    42    1
    77     2    57    1
    78    65    25    1
    79    73    81    1
    80    33    81    1
    81    67    27    1
    82    68    28    1
    83    70    30    1
    84    72    32    1
    85    71    31    1
    86    69    29    1
    87    66    26    1
    88     1    41    1
    89    49    17    1
    90    50    18    1
    91    51    19    1
    92    52    20    1
    93    53    21    1
    94    54    22    1
    95    55    23    1
    96    56    24    1
    97    17    89    1
    98    18    90    1
    99    19    91    1
   100    20    92    1
   101    21    93    1
   102    22    94    1
   103    23    95    1
   104    24    96    1
   105    25    97    1
   106    26    98    1
   107    27    99    1
   108    28   100    1
   109    29   101    1
   110    30   102    1
   111    31   103    1
   112    32   104    1
   113    33   105    1
   114    34   106    1
   115    35   107    1
   116    36   108    1
   117    37   109    1
   118    38   110    1
   119    39   111    1
   120    40   112    1
   121    41   113    1
   122    42   114    1
   123    43   115    1
   124    44   116    1
   125    45   117    1
   126    46   118    1
   127    47   119    1
   128    48   120    1
   129    49   121    1
   130    50   122    1
   131    51   123    1
   132    52   124    1
   133    53   125    1
   134    54   126    1
   135    55   127    1
   136    56   128    1
   137    57   129    1
   138    58   130    1
   139    59   131    1
   140    60   132    1
   141    61   133    1
   142    62   134    1
   143    63   135    1
   144    64   136    1
   145    65   137    1
   146    66   138    1
   147    67   139    1
   148    68   140    1
   149    69   141    1
   150    70   142    1
   151    71   143    1
   152    72   144    1
   153    73   145    1
   154    74   146    1
   155    75   147    1
   156    76   148    1
   157    77   149    1
   158    78   150    1
   159    79   151    1
   160    80   152    1
   161    81   153    1
   162    81   154    1
   163    82   155    1
   164    82   156    1
   165    83   157    1
   166    83   158    1
   167    84   159    1
   168    84   160    1
   169    85   161    1
   170    85   162    1
   171    86   163    1
   172    86   164    1
   173    87   165    1
   174    87   166    1
   175    88   167    1
   176    88   168    1
