@<TRIPOS>MOLECULE
644019
 53 54 0 0 0
SMALL
GASTEIGER

@<TRIPOS>ATOM
      1 O           2.2596   -0.1874    1.5233 O.3     1  LIG1       -0.5063
      2 O          -0.9683   -3.7256    1.2651 O.3     1  LIG1       -0.5063
      3 C           0.2094   -1.6541   -1.1898 C.3     1  LIG1       -0.0096
      4 C           1.1003   -2.3783   -0.1288 C.3     1  LIG1        0.0158
      5 C           0.7008   -0.2119   -1.4036 C.3     1  LIG1       -0.0420
      6 C           2.1915   -0.1039   -1.7423 C.3     1  LIG1       -0.0314
      7 C           2.5796   -2.1915   -0.4150 C.2     1  LIG1       -0.0768
      8 C           0.7103   -2.0236    1.3195 C.ar    1  LIG1        0.0427
      9 C           3.0747   -1.1794   -1.1526 C.2     1  LIG1       -0.0759
     10 C           0.0436   -2.3869   -2.5415 C.2     1  LIG1       -0.0757
     11 C           1.3051   -0.9974    2.0722 C.ar    1  LIG1        0.1243
     12 C          -0.3182   -2.7383    1.9596 C.ar    1  LIG1        0.1243
     13 C           4.5422   -1.0372   -1.4211 C.3     1  LIG1       -0.0438
     14 C           1.2080   -3.1137   -3.1639 C.3     1  LIG1       -0.0437
     15 C          -0.0718   -1.4800    4.0307 C.ar    1  LIG1       -0.0405
     16 C           0.9345   -0.7401    3.3985 C.ar    1  LIG1       -0.0165
     17 C          -0.7108   -2.4718    3.2832 C.ar    1  LIG1       -0.0165
     18 C          -0.4244   -1.0975    5.4504 C.3     1  LIG1       -0.0275
     19 C          -1.1442   -2.3839   -3.1783 C.2     1  LIG1       -0.0994
     20 C          -1.4833   -1.9019    6.2079 C.3     1  LIG1       -0.0491
     21 C          -1.1325   -3.3451    6.5919 C.3     1  LIG1       -0.0530
     22 C          -0.0935   -3.5066    7.7050 C.3     1  LIG1       -0.0559
     23 C           1.3439   -3.5569    7.2120 C.3     1  LIG1       -0.0653
     24 H           2.7326    0.2816    2.2270 H       1  LIG1        0.2921
     25 H          -1.6465   -4.1225    1.8345 H       1  LIG1        0.2921
     26 H          -0.8034   -1.5776   -0.7665 H       1  LIG1        0.0354
     27 H           0.9310   -3.4591   -0.2398 H       1  LIG1        0.0399
     28 H           0.5034    0.3641   -0.4903 H       1  LIG1        0.0274
     29 H           0.1147    0.2865   -2.1871 H       1  LIG1        0.0274
     30 H           2.5472    0.8779   -1.4060 H       1  LIG1        0.0310
     31 H           2.3064   -0.1178   -2.8320 H       1  LIG1        0.0310
     32 H           3.2448   -2.9350    0.0157 H       1  LIG1        0.0578
     33 H           4.7231   -0.9406   -2.4968 H       1  LIG1        0.0274
     34 H           5.1109   -1.9026   -1.0660 H       1  LIG1        0.0274
     35 H           4.9332   -0.1459   -0.9197 H       1  LIG1        0.0274
     36 H           0.9276   -3.6051   -4.1024 H       1  LIG1        0.0274
     37 H           1.5840   -3.8981   -2.5019 H       1  LIG1        0.0274
     38 H           2.0202   -2.4263   -3.4089 H       1  LIG1        0.0274
     39 H           1.4170    0.0674    3.9447 H       1  LIG1        0.0657
     40 H          -1.5239   -3.0424    3.7197 H       1  LIG1        0.0657
     41 H          -0.7916   -0.0620    5.4053 H       1  LIG1        0.0313
     42 H           0.4939   -1.0575    6.0441 H       1  LIG1        0.0313
     43 H          -1.2790   -2.8857   -4.1326 H       1  LIG1        0.0534
     44 H          -2.0074   -1.8690   -2.7695 H       1  LIG1        0.0534
     45 H          -2.4090   -1.9138    5.6183 H       1  LIG1        0.0268
     46 H          -1.7264   -1.3545    7.1289 H       1  LIG1        0.0268
     47 H          -0.8444   -3.9352    5.7168 H       1  LIG1        0.0265
     48 H          -2.0647   -3.7953    6.9611 H       1  LIG1        0.0265
     49 H          -0.2948   -4.4602    8.2096 H       1  LIG1        0.0263
     50 H          -0.2068   -2.7248    8.4637 H       1  LIG1        0.0263
     51 H           1.4568   -4.2689    6.3882 H       1  LIG1        0.0230
     52 H           2.0044   -3.8773    8.0249 H       1  LIG1        0.0230
     53 H           1.6968   -2.5809    6.8755 H       1  LIG1        0.0230
@<TRIPOS>BOND
     1     8    11   ar
     2     8    12   ar
     3    11    16   ar
     4    15    16   ar
     5    15    17   ar
     6    12    17   ar
     7     3     5    1
     8     3     4    1
     9     5     6    1
    10     6     9    1
    11     7     9    2
    12     4     7    1
    13     1    11    1
    14    15    18    1
    15    18    20    1
    16    20    21    1
    17    21    22    1
    18    22    23    1
    19     2    12    1
    20     9    13    1
    21    10    19    2
    22    10    14    1
    23     3    10    1
    24     4     8    1
    25     1    24    1
    26     2    25    1
    27     3    26    1
    28     4    27    1
    29     5    28    1
    30     5    29    1
    31     6    30    1
    32     6    31    1
    33     7    32    1
    34    13    33    1
    35    13    34    1
    36    13    35    1
    37    14    36    1
    38    14    37    1
    39    14    38    1
    40    16    39    1
    41    17    40    1
    42    18    41    1
    43    18    42    1
    44    19    43    1
    45    19    44    1
    46    20    45    1
    47    20    46    1
    48    21    47    1
    49    21    48    1
    50    22    49    1
    51    22    50    1
    52    23    51    1
    53    23    52    1
    54    23    53    1
