@<TRIPOS>MOLECULE
887
 6 5 0 0 0
SMALL
GASTEIGER

@<TRIPOS>ATOM
      1 O           1.0246    0.0909   -0.0408 O.3     1  LIG1       -0.3982
      2 C           0.5394   -1.0437    0.6555 C.3     1  LIG1        0.0330
      3 H           0.2990    0.7378   -0.0727 H       1  LIG1        0.2090
      4 H           1.3324   -1.7925    0.7093 H       1  LIG1        0.0521
      5 H          -0.3174   -1.4606    0.1211 H       1  LIG1        0.0521
      6 H           0.2459   -0.7529    1.6667 H       1  LIG1        0.0521
@<TRIPOS>BOND
     1     1     2    1
     2     1     3    1
     3     2     4    1
     4     2     5    1
     5     2     6    1
