@<TRIPOS>MOLECULE
162771
 210 217 0 0 0
SMALL
GASTEIGER

@<TRIPOS>ATOM
      1 O           1.6625    0.6015    1.6564 O.3     1  LIG1       -0.3401
      2 O          -2.3471   -1.4201    3.6328 O.3     1  LIG1       -0.3401
      3 O          -2.5652    1.7783   -1.2196 O.3     1  LIG1       -0.3401
      4 O          -6.3584   -5.2054    2.0381 O.3     1  LIG1       -0.3401
      5 O          -5.3143    1.8860   -5.4135 O.3     1  LIG1       -0.3401
      6 O          -5.2644    0.2782    3.4802 O.3     1  LIG1       -0.3401
      7 O          -5.9717    3.8323    0.3621 O.3     1  LIG1       -0.3401
      8 O          -0.2133   -1.7518    2.6338 O.3     1  LIG1       -0.3405
      9 O          -0.3231    1.7296    1.1447 O.3     1  LIG1       -0.3405
     10 O          -4.6541   -4.9105    4.2317 O.3     1  LIG1       -0.3405
     11 O          -4.9724    2.2449   -2.3809 O.3     1  LIG1       -0.3405
     12 O          -6.6436   -1.2218    1.6400 O.3     1  LIG1       -0.3405
     13 O          -3.8062    3.1058   -3.3952 O.3     1  LIG1       -0.3405
     14 O          -4.8942    2.9670    2.2430 O.3     1  LIG1       -0.3405
     15 O           1.5388    1.2251    4.8935 O.3     1  LIG1       -0.3744
     16 O          -1.1339   -0.5396   -1.2253 O.3     1  LIG1       -0.3744
     17 O          -4.2744   -0.6957    1.7213 O.3     1  LIG1       -0.3744
     18 O          -2.7454    2.2462   -6.6383 O.3     1  LIG1       -0.3744
     19 O          -3.2861   -3.9991    1.2794 O.3     1  LIG1       -0.3744
     20 O          -7.3201    1.2043   -0.6216 O.3     1  LIG1       -0.3744
     21 O          -8.4500    1.8429    4.1643 O.3     1  LIG1       -0.3744
     22 O          -1.3302    0.3448    5.4646 O.3     1  LIG1       -0.3721
     23 O           1.7792    1.7126   -1.1909 O.3     1  LIG1       -0.3721
     24 O          -7.7913   -3.1854    2.1838 O.3     1  LIG1       -0.3721
     25 O          -2.3018    0.2103   -4.4441 O.3     1  LIG1       -0.3721
     26 O          -5.7111   -3.0099    5.0981 O.3     1  LIG1       -0.3721
     27 O          -7.5047    0.6941   -3.8905 O.3     1  LIG1       -0.3721
     28 O          -8.5497    2.7158    1.3211 O.3     1  LIG1       -0.3721
     29 O           3.3044   -2.1948    1.7260 O.3     1  LIG1       -0.3803
     30 O          -0.8209    4.6247    1.5683 O.3     1  LIG1       -0.3803
     31 O          -0.8575   -4.4475    4.9467 O.3     1  LIG1       -0.3803
     32 O          -7.5488    4.9709   -3.4463 O.3     1  LIG1       -0.3803
     33 O          -7.9265   -2.1785   -1.4290 O.3     1  LIG1       -0.3803
     34 O          -3.0291    5.8886   -2.7715 O.3     1  LIG1       -0.3803
     35 O          -4.2775    2.7589    5.8576 O.3     1  LIG1       -0.3803
     36 C           1.5253   -0.0993    2.9127 C.3     1  LIG1        0.1187
     37 C          -2.9237   -2.5639    2.9224 C.3     1  LIG1        0.1187
     38 C          -1.1445    1.9368   -1.2310 C.3     1  LIG1        0.1187
     39 C          -5.6955   -4.2142    1.1633 C.3     1  LIG1        0.1187
     40 C          -4.7357    3.1353   -5.2812 C.3     1  LIG1        0.1187
     41 C          -6.0348    1.4317    3.8690 C.3     1  LIG1        0.1187
     42 C          -5.8858    3.4728   -1.0411 C.3     1  LIG1        0.1187
     43 C           0.6008    0.6176    3.9474 C.3     1  LIG1        0.1177
     44 C          -0.3425    0.6205   -1.5232 C.3     1  LIG1        0.1177
     45 C          -4.6072   -2.0894    1.9801 C.3     1  LIG1        0.1177
     46 C          -3.0380    2.7291   -5.3138 C.3     1  LIG1        0.1177
     47 C          -4.4894   -4.0073    2.2460 C.3     1  LIG1        0.1177
     48 C          -6.9028    2.0897   -1.6716 C.3     1  LIG1        0.1177
     49 C          -7.3955    1.6756    3.1670 C.3     1  LIG1        0.1177
     50 C          -0.3250   -0.3643    4.7191 C.3     1  LIG1        0.1374
     51 C           0.9653    0.6264   -0.6979 C.3     1  LIG1        0.1374
     52 C          -6.3903   -3.0118    2.7624 C.3     1  LIG1        0.1374
     53 C          -2.4044    1.6128   -4.0537 C.3     1  LIG1        0.1374
     54 C          -4.8550   -2.6281    3.8578 C.3     1  LIG1        0.1374
     55 C          -6.3820    1.0609   -3.0654 C.3     1  LIG1        0.1374
     56 C          -7.3683    2.8375    2.1325 C.3     1  LIG1        0.1374
     57 C          -0.9259   -1.5110    3.8422 C.3     1  LIG1        0.1887
     58 C           0.5229    0.6518    0.8008 C.3     1  LIG1        0.1887
     59 C          -6.1456   -4.6119    3.3807 C.3     1  LIG1        0.1887
     60 C          -3.2923    1.4924   -2.4343 C.3     1  LIG1        0.1887
     61 C          -5.8841   -1.0187    3.2775 C.3     1  LIG1        0.1887
     62 C          -4.9106    1.6035   -4.0846 C.3     1  LIG1        0.1887
     63 C          -6.0162    2.7823    1.3453 C.3     1  LIG1        0.1887
     64 C           1.1941   -1.5986    2.7867 C.3     1  LIG1        0.1136
     65 C          -0.6177    2.6353    0.0830 C.3     1  LIG1        0.1136
     66 C          -3.0810   -4.1763    3.9274 C.3     1  LIG1        0.1136
     67 C          -5.6103    3.4942   -3.7446 C.3     1  LIG1        0.1136
     68 C          -6.4285   -2.6176    0.5455 C.3     1  LIG1        0.1136
     69 C          -4.2652    3.9376   -1.8118 C.3     1  LIG1        0.1136
     70 C          -5.1770    2.7096    3.6332 C.3     1  LIG1        0.1136
     71 C           1.8883   -2.3144    1.6249 C.3     1  LIG1        0.0761
     72 C          -1.5202    3.7199    0.6881 C.3     1  LIG1        0.0761
     73 C          -2.2617   -4.4172    5.2090 C.3     1  LIG1        0.0761
     74 C          -7.1277    3.7414   -4.0721 C.3     1  LIG1        0.0761
     75 C          -7.6535   -3.0553   -0.3385 C.3     1  LIG1        0.0761
     76 C          -4.0711    5.4771   -1.8821 C.3     1  LIG1        0.0761
     77 C          -3.8948    2.7228    4.4712 C.3     1  LIG1        0.0761
     78 C           0.9909    2.2418    5.7166 C.3     1  LIG1        0.0370
     79 C          -0.6111   -1.7658   -1.7183 C.3     1  LIG1        0.0370
     80 C          -4.2376   -0.2165    0.3955 C.3     1  LIG1        0.0370
     81 C          -1.4891    2.6727   -7.1390 C.3     1  LIG1        0.0370
     82 C          -3.0667   -5.0790    0.3836 C.3     1  LIG1        0.0370
     83 C          -8.6170    0.6634   -0.8455 C.3     1  LIG1        0.0370
     84 C          -8.4364    3.0471    4.9233 C.3     1  LIG1        0.0370
     85 C          -1.8774   -0.4123    6.5350 C.3     1  LIG1        0.0371
     86 C           3.0203    1.8675   -0.5130 C.3     1  LIG1        0.0371
     87 C          -8.8681   -2.3727    2.6752 C.3     1  LIG1        0.0371
     88 C          -1.4931   -0.1217   -5.5496 C.3     1  LIG1        0.0371
     89 C          -5.1038   -3.2309    6.3582 C.3     1  LIG1        0.0371
     90 C          -7.2601   -0.4801   -4.6529 C.3     1  LIG1        0.0371
     91 C          -9.1404    3.9507    0.9649 C.3     1  LIG1        0.0371
     92 C           3.9574   -2.7893    0.6122 C.3     1  LIG1        0.0366
     93 C           0.2377    5.3475    0.9530 C.3     1  LIG1        0.0366
     94 C          -0.0973   -4.7625    6.1080 C.3     1  LIG1        0.0366
     95 C          -8.8039    4.9034   -2.7854 C.3     1  LIG1        0.0366
     96 C          -9.0174   -2.6815   -2.2011 C.3     1  LIG1        0.0366
     97 C          -1.7523    5.9390   -2.1620 C.3     1  LIG1        0.0366
     98 C          -3.1882    3.0799    6.7073 C.3     1  LIG1        0.0366
     99 H           2.5516   -0.0643    3.3030 H       1  LIG1        0.0651
    100 H          -2.1662   -2.7052    2.1393 H       1  LIG1        0.0651
    101 H          -0.9114    2.6675   -2.0122 H       1  LIG1        0.0651
    102 H          -5.4493   -4.7583    0.2527 H       1  LIG1        0.0651
    103 H          -5.0149    3.8141   -6.0920 H       1  LIG1        0.0651
    104 H          -6.2064    1.3062    4.9451 H       1  LIG1        0.0651
    105 H          -6.4651    4.3014   -1.4524 H       1  LIG1        0.0651
    106 H           0.0242    1.4283    3.4962 H       1  LIG1        0.0650
    107 H          -0.0981    0.6020   -2.5920 H       1  LIG1        0.0650
    108 H          -4.4002   -2.4295    0.9650 H       1  LIG1        0.0650
    109 H          -2.5193    3.6898   -5.1615 H       1  LIG1        0.0650
    110 H          -4.3195   -5.0693    2.4787 H       1  LIG1        0.0650
    111 H          -7.8205    2.5824   -1.9823 H       1  LIG1        0.0650
    112 H          -7.7041    0.7754    2.6339 H       1  LIG1        0.0650
    113 H           0.3318   -0.8414    5.4634 H       1  LIG1        0.0674
    114 H           1.5489   -0.2824   -0.8664 H       1  LIG1        0.0674
    115 H          -6.8504   -2.6182    3.6645 H       1  LIG1        0.0674
    116 H          -1.3840    1.9529   -3.8660 H       1  LIG1        0.0674
    117 H          -4.0695   -2.1453    4.4396 H       1  LIG1        0.0674
    118 H          -6.0275    0.1432   -2.5645 H       1  LIG1        0.0674
    119 H          -7.4240    3.8041    2.6464 H       1  LIG1        0.0674
    120 H          -0.7802   -2.3874    4.4535 H       1  LIG1        0.0938
    121 H          -0.0793   -0.2405    0.9545 H       1  LIG1        0.0938
    122 H          -6.9315   -4.9706    4.0527 H       1  LIG1        0.0938
    123 H          -3.5892    0.4408   -2.3199 H       1  LIG1        0.0938
    124 H          -6.7722   -0.9271    3.9377 H       1  LIG1        0.0938
    125 H          -4.3349    0.6828   -4.1638 H       1  LIG1        0.0938
    126 H          -5.8657    1.8144    0.8855 H       1  LIG1        0.0938
    127 H           1.5096   -2.1045    3.7100 H       1  LIG1        0.0647
    128 H           0.3253    3.1233   -0.1710 H       1  LIG1        0.0647
    129 H          -2.6247   -4.9340    3.2651 H       1  LIG1        0.0647
    130 H          -5.2603    4.4971   -3.5125 H       1  LIG1        0.0647
    131 H          -5.7501   -2.1922   -0.2017 H       1  LIG1        0.0647
    132 H          -3.5060    3.5929   -1.1332 H       1  LIG1        0.0647
    133 H          -5.7436    3.5788    3.9913 H       1  LIG1        0.0647
    134 H           1.5420   -1.9294    0.6621 H       1  LIG1        0.0586
    135 H           1.6117   -3.3760    1.6452 H       1  LIG1        0.0586
    136 H          -1.9841    4.3363   -0.0722 H       1  LIG1        0.0586
    137 H          -2.3124    3.2606    1.2873 H       1  LIG1        0.0586
    138 H          -2.4740   -3.6679    5.9677 H       1  LIG1        0.0586
    139 H          -2.5458   -5.3965    5.6171 H       1  LIG1        0.0586
    140 H          -7.2042    3.9609   -5.1436 H       1  LIG1        0.0586
    141 H          -7.8311    2.9382   -3.8984 H       1  LIG1        0.0586
    142 H          -7.3821   -4.0190   -0.7901 H       1  LIG1        0.0586
    143 H          -8.5834   -3.2187    0.2020 H       1  LIG1        0.0586
    144 H          -4.9829    5.9659   -2.2402 H       1  LIG1        0.0586
    145 H          -3.9190    5.8814   -0.8734 H       1  LIG1        0.0586
    146 H          -3.2740    1.8440    4.2734 H       1  LIG1        0.0586
    147 H          -3.3070    3.6160    4.2253 H       1  LIG1        0.0586
    148 H           0.5519    3.0414    5.1156 H       1  LIG1        0.0524
    149 H           1.8090    2.6628    6.3100 H       1  LIG1        0.0524
    150 H           0.2641    1.8380    6.4228 H       1  LIG1        0.0524
    151 H          -1.0796   -2.0027   -2.6759 H       1  LIG1        0.0524
    152 H          -0.8608   -2.5532   -1.0008 H       1  LIG1        0.0524
    153 H           0.4743   -1.7575   -1.8473 H       1  LIG1        0.0524
    154 H          -3.5920   -0.8293   -0.2361 H       1  LIG1        0.0524
    155 H          -3.8438    0.7962    0.4486 H       1  LIG1        0.0524
    156 H          -5.2347   -0.1525   -0.0368 H       1  LIG1        0.0524
    157 H          -1.2232    2.0219   -7.9782 H       1  LIG1        0.0524
    158 H          -0.7055    2.5992   -6.3802 H       1  LIG1        0.0524
    159 H          -1.5631    3.6988   -7.5060 H       1  LIG1        0.0524
    160 H          -3.5909   -4.8971   -0.5583 H       1  LIG1        0.0524
    161 H          -3.3444   -6.0436    0.8142 H       1  LIG1        0.0524
    162 H          -1.9987   -5.0926    0.1429 H       1  LIG1        0.0524
    163 H          -9.3718    1.4549   -0.8741 H       1  LIG1        0.0524
    164 H          -8.8599   -0.0137   -0.0234 H       1  LIG1        0.0524
    165 H          -8.6591    0.1168   -1.7858 H       1  LIG1        0.0524
    166 H          -9.1449    2.9388    5.7503 H       1  LIG1        0.0524
    167 H          -8.7720    3.8936    4.3181 H       1  LIG1        0.0524
    168 H          -7.4561    3.2558    5.3577 H       1  LIG1        0.0524
    169 H          -2.7997    0.0693    6.8692 H       1  LIG1        0.0524
    170 H          -1.1706   -0.4317    7.3693 H       1  LIG1        0.0524
    171 H          -2.1165   -1.4337    6.2377 H       1  LIG1        0.0524
    172 H           3.6673    2.4921   -1.1364 H       1  LIG1        0.0524
    173 H           3.5170    0.9054   -0.3581 H       1  LIG1        0.0524
    174 H           2.8722    2.3922    0.4343 H       1  LIG1        0.0524
    175 H          -9.4770   -2.0636    1.8188 H       1  LIG1        0.0524
    176 H          -8.5641   -1.4651    3.1920 H       1  LIG1        0.0524
    177 H          -9.4960   -2.9758    3.3331 H       1  LIG1        0.0524
    178 H          -0.5578    0.4403   -5.5544 H       1  LIG1        0.0524
    179 H          -1.2466   -1.1856   -5.4712 H       1  LIG1        0.0524
    180 H          -2.0467   -0.0068   -6.4830 H       1  LIG1        0.0524
    181 H          -4.8894   -4.2949    6.4927 H       1  LIG1        0.0524
    182 H          -5.8402   -2.9733    7.1246 H       1  LIG1        0.0524
    183 H          -4.2188   -2.6200    6.5217 H       1  LIG1        0.0524
    184 H          -8.1748   -0.7264   -5.1994 H       1  LIG1        0.0524
    185 H          -7.0124   -1.3218   -4.0002 H       1  LIG1        0.0524
    186 H          -6.4593   -0.3309   -5.3799 H       1  LIG1        0.0524
    187 H          -9.7748    4.3049    1.7817 H       1  LIG1        0.0524
    188 H          -9.7795    3.7770    0.0949 H       1  LIG1        0.0524
    189 H          -8.3967    4.7094    0.7100 H       1  LIG1        0.0524
    190 H           3.6578   -2.2944   -0.3172 H       1  LIG1        0.0524
    191 H           3.7271   -3.8577    0.5606 H       1  LIG1        0.0524
    192 H           5.0361   -2.6680    0.7393 H       1  LIG1        0.0524
    193 H           0.1586    5.3742   -0.1378 H       1  LIG1        0.0524
    194 H           1.1930    4.8956    1.2351 H       1  LIG1        0.0524
    195 H           0.2194    6.3766    1.3207 H       1  LIG1        0.0524
    196 H          -0.5116   -4.2911    7.0050 H       1  LIG1        0.0524
    197 H          -0.0591   -5.8473    6.2354 H       1  LIG1        0.0524
    198 H           0.9211   -4.3898    5.9630 H       1  LIG1        0.0524
    199 H          -9.1921    5.9188   -2.6726 H       1  LIG1        0.0524
    200 H          -8.6646    4.5058   -1.7802 H       1  LIG1        0.0524
    201 H          -9.5303    4.2968   -3.3313 H       1  LIG1        0.0524
    202 H          -9.2808   -1.9446   -2.9625 H       1  LIG1        0.0524
    203 H          -9.8974   -2.8554   -1.5723 H       1  LIG1        0.0524
    204 H          -8.7256   -3.6115   -2.6991 H       1  LIG1        0.0524
    205 H          -1.7946    6.4255   -1.1821 H       1  LIG1        0.0524
    206 H          -1.0811    6.5219   -2.7980 H       1  LIG1        0.0524
    207 H          -1.3415    4.9320   -2.0791 H       1  LIG1        0.0524
    208 H          -2.9183    4.1332    6.5934 H       1  LIG1        0.0524
    209 H          -2.3221    2.4511    6.5004 H       1  LIG1        0.0524
    210 H          -3.5027    2.9117    7.7416 H       1  LIG1        0.0524
@<TRIPOS>BOND
     1     8    57    1
     2     8    64    1
     3    50    57    1
     4    43    50    1
     5    36    43    1
     6    36    64    1
     7     9    58    1
     8     9    65    1
     9    51    58    1
    10    44    51    1
    11    38    44    1
    12    38    65    1
    13    10    59    1
    14    10    66    1
    15    52    59    1
    16    45    52    1
    17    37    45    1
    18    37    66    1
    19    11    60    1
    20    11    67    1
    21    53    60    1
    22    46    53    1
    23    40    46    1
    24    40    67    1
    25    12    61    1
    26    12    68    1
    27    54    61    1
    28    47    54    1
    29    39    47    1
    30    39    68    1
    31    13    62    1
    32    13    69    1
    33    55    62    1
    34    48    55    1
    35    42    48    1
    36    42    69    1
    37    14    63    1
    38    14    70    1
    39    56    63    1
    40    49    56    1
    41    41    49    1
    42    41    70    1
    43     1    58    1
    44    30    72    1
    45    30    93    1
    46     3    38    1
    47     3    60    1
    48    32    74    1
    49    32    95    1
    50     5    40    1
    51     5    62    1
    52    34    76    1
    53    34    97    1
    54     7    42    1
    55     7    63    1
    56    35    77    1
    57    35    98    1
    58     6    41    1
    59     6    61    1
    60    33    75    1
    61    33    96    1
    62     4    39    1
    63     4    59    1
    64    31    73    1
    65    31    94    1
    66     2    37    1
    67     2    57    1
    68    15    78    1
    69    22    85    1
    70    29    71    1
    71    29    92    1
    72    17    80    1
    73    24    87    1
    74    19    82    1
    75    26    89    1
    76    21    84    1
    77    28    91    1
    78    20    83    1
    79    27    90    1
    80    18    81    1
    81    25    88    1
    82    16    79    1
    83    23    86    1
    84     1    36    1
    85    43    15    1
    86    47    19    1
    87    48    20    1
    88    51    23    1
    89    52    24    1
    90    53    25    1
    91    56    28    1
    92    64    71    1
    93    68    75    1
    94    69    76    1
    95    44    16    1
    96    45    17    1
    97    46    18    1
    98    49    21    1
    99    50    22    1
   100    54    26    1
   101    55    27    1
   102    65    72    1
   103    66    73    1
   104    67    74    1
   105    70    77    1
   106    36    99    1
   107    37   100    1
   108    38   101    1
   109    39   102    1
   110    40   103    1
   111    41   104    1
   112    42   105    1
   113    43   106    1
   114    44   107    1
   115    45   108    1
   116    46   109    1
   117    47   110    1
   118    48   111    1
   119    49   112    1
   120    50   113    1
   121    51   114    1
   122    52   115    1
   123    53   116    1
   124    54   117    1
   125    55   118    1
   126    56   119    1
   127    57   120    1
   128    58   121    1
   129    59   122    1
   130    60   123    1
   131    61   124    1
   132    62   125    1
   133    63   126    1
   134    64   127    1
   135    65   128    1
   136    66   129    1
   137    67   130    1
   138    68   131    1
   139    69   132    1
   140    70   133    1
   141    71   134    1
   142    71   135    1
   143    72   136    1
   144    72   137    1
   145    73   138    1
   146    73   139    1
   147    74   140    1
   148    74   141    1
   149    75   142    1
   150    75   143    1
   151    76   144    1
   152    76   145    1
   153    77   146    1
   154    77   147    1
   155    78   148    1
   156    78   149    1
   157    78   150    1
   158    79   151    1
   159    79   152    1
   160    79   153    1
   161    80   154    1
   162    80   155    1
   163    80   156    1
   164    81   157    1
   165    81   158    1
   166    81   159    1
   167    82   160    1
   168    82   161    1
   169    82   162    1
   170    83   163    1
   171    83   164    1
   172    83   165    1
   173    84   166    1
   174    84   167    1
   175    84   168    1
   176    85   169    1
   177    85   170    1
   178    85   171    1
   179    86   172    1
   180    86   173    1
   181    86   174    1
   182    87   175    1
   183    87   176    1
   184    87   177    1
   185    88   178    1
   186    88   179    1
   187    88   180    1
   188    89   181    1
   189    89   182    1
   190    89   183    1
   191    90   184    1
   192    90   185    1
   193    90   186    1
   194    91   187    1
   195    91   188    1
   196    91   189    1
   197    92   190    1
   198    92   191    1
   199    92   192    1
   200    93   193    1
   201    93   194    1
   202    93   195    1
   203    94   196    1
   204    94   197    1
   205    94   198    1
   206    95   199    1
   207    95   200    1
   208    95   201    1
   209    96   202    1
   210    96   203    1
   211    96   204    1
   212    97   205    1
   213    97   206    1
   214    97   207    1
   215    98   208    1
   216    98   209    1
   217    98   210    1
