ACX - Ideal conformer
     RDKit          3D

126132  0  0  0  0  0  0  0  0999 V2000
    1.8370   -6.5310   -2.0450 C   0  0  1  0  0  0  0  0  0  0  0  0
    2.4300   -5.4450   -2.9670 C   0  0  1  0  0  0  0  0  0  0  0  0
    1.6710   -5.3780   -4.2900 C   0  0  2  0  0  0  0  0  0  0  0  0
    0.1650   -5.1440   -4.0640 C   0  0  1  0  0  0  0  0  0  0  0  0
   -0.2650   -5.5440   -2.6360 C   0  0  1  0  0  0  0  0  0  0  0  0
   -1.7630   -5.8260   -2.5730 C   0  0  0  0  0  0  0  0  0  0  0  0
    2.1390   -6.2430   -0.6760 O   0  0  0  0  0  0  0  0  0  0  0  0
    2.3740   -4.1580   -2.3570 O   0  0  0  0  0  0  0  0  0  0  0  0
    1.8370   -6.6130   -4.9850 O   0  0  0  0  0  0  0  0  0  0  0  0
    0.4250   -6.7220   -2.2290 O   0  0  0  0  0  0  0  0  0  0  0  0
   -2.0940   -6.1970   -1.2490 O   0  0  0  0  0  0  0  0  0  0  0  0
    4.2770   -5.2770    1.3990 C   0  0  1  0  0  0  0  0  0  0  0  0
    5.1700   -6.2670    0.6570 C   0  0  1  0  0  0  0  0  0  0  0  0
    4.3970   -7.0840   -0.3810 C   0  0  2  0  0  0  0  0  0  0  0  0
    2.9160   -7.2540   -0.0110 C   0  0  1  0  0  0  0  0  0  0  0  0
    2.6600   -7.1050    1.5040 C   0  0  1  0  0  0  0  0  0  0  0  0
    3.0810   -8.3480    2.2860 C   0  0  0  0  0  0  0  0  0  0  0  0
    3.7170   -4.3290    0.4840 O   0  0  0  0  0  0  0  0  0  0  0  0
    6.2300   -5.5600    0.0180 O   0  0  0  0  0  0  0  0  0  0  0  0
    5.0180   -8.3690   -0.4620 O   0  0  0  0  0  0  0  0  0  0  0  0
    3.2700   -5.9690    2.1340 O   0  0  0  0  0  0  0  0  0  0  0  0
    2.8240   -8.1270    3.6620 O   0  0  0  0  0  0  0  0  0  0  0  0
    2.3360   -0.3960    0.5430 C   0  0  1  0  0  0  0  0  0  0  0  0
    3.8510   -0.5910    0.5880 C   0  0  1  0  0  0  0  0  0  0  0  0
    4.2450   -2.0200    0.2220 C   0  0  2  0  0  0  0  0  0  0  0  0
    3.4470   -3.0410    1.0490 C   0  0  1  0  0  0  0  0  0  0  0  0
    1.9470   -2.7140    0.9740 C   0  0  1  0  0  0  0  0  0  0  0  0
    1.1000   -3.6050    1.8720 C   0  0  0  0  0  0  0  0  0  0  0  0
    1.8630   -0.4660   -0.8100 O   0  0  0  0  0  0  0  0  0  0  0  0
    4.4710    0.3340   -0.2990 O   0  0  0  0  0  0  0  0  0  0  0  0
    5.6410   -2.2000    0.4700 O   0  0  0  0  0  0  0  0  0  0  0  0
    1.7090   -1.3630    1.3920 O   0  0  0  0  0  0  0  0  0  0  0  0
   -0.2550   -3.2180    1.7380 O   0  0  0  0  0  0  0  0  0  0  0  0
    0.0860    0.7360   -3.7710 C   0  0  1  0  0  0  0  0  0  0  0  0
    0.9760    1.6450   -2.9110 C   0  0  1  0  0  0  0  0  0  0  0  0
    0.6450    1.5190   -1.4200 C   0  0  2  0  0  0  0  0  0  0  0  0
    0.5290    0.0580   -0.9600 C   0  0  1  0  0  0  0  0  0  0  0  0
   -0.1950   -0.8540   -1.9660 C   0  0  1  0  0  0  0  0  0  0  0  0
   -1.7170   -0.8290   -1.8420 C   0  0  0  0  0  0  0  0  0  0  0  0
    0.4460    0.7670   -5.1580 O   0  0  0  0  0  0  0  0  0  0  0  0
    2.3430    1.2800   -3.1060 O   0  0  0  0  0  0  0  0  0  0  0  0
   -0.5570    2.2200   -1.1170 O   0  0  0  0  0  0  0  0  0  0  0  0
    0.2230   -0.6140   -3.3100 O   0  0  0  0  0  0  0  0  0  0  0  0
   -2.0660   -1.2680   -0.5430 O   0  0  0  0  0  0  0  0  0  0  0  0
   -0.9220    0.7120   -8.0810 C   0  0  1  0  0  0  0  0  0  0  0  0
    0.2870    1.5870   -8.3990 C   0  0  1  0  0  0  0  0  0  0  0  0
    1.1030    1.8860   -7.1420 C   0  0  2  0  0  0  0  0  0  0  0  0
    0.2350    1.9950   -5.8740 C   0  0  1  0  0  0  0  0  0  0  0  0
   -1.2630    2.2160   -6.1830 C   0  0  1  0  0  0  0  0  0  0  0  0
   -1.5670    3.6720   -6.5390 C   0  0  0  0  0  0  0  0  0  0  0  0
   -0.4760   -0.5420   -7.5510 O   0  0  0  0  0  0  0  0  0  0  0  0
    1.1320    0.9390   -9.3470 O   0  0  0  0  0  0  0  0  0  0  0  0
    1.8200    3.1070   -7.3440 O   0  0  0  0  0  0  0  0  0  0  0  0
   -1.8220    1.3930   -7.2130 O   0  0  0  0  0  0  0  0  0  0  0  0
   -1.2150    4.4860   -5.4360 O   0  0  0  0  0  0  0  0  0  0  0  0
   -0.8540   -3.4040   -5.3940 C   0  0  1  0  0  0  0  0  0  0  0  0
    0.0740   -3.3710   -6.6130 C   0  0  1  0  0  0  0  0  0  0  0  0
   -0.6690   -2.8960   -7.8630 C   0  0  2  0  0  0  0  0  0  0  0  0
   -1.4530   -1.5970   -7.6090 C   0  0  1  0  0  0  0  0  0  0  0  0
   -2.2490   -1.6380   -6.2910 C   0  0  1  0  0  0  0  0  0  0  0  0
   -3.5660   -2.4060   -6.3890 C   0  0  0  0  0  0  0  0  0  0  0  0
   -0.1300   -3.7490   -4.2060 O   0  0  0  0  0  0  0  0  0  0  0  0
    1.1570   -2.4840   -6.3330 O   0  0  0  0  0  0  0  0  0  0  0  0
   -1.5500   -3.9310   -8.2880 O   0  0  0  0  0  0  0  0  0  0  0  0
   -1.4520   -2.1180   -5.2050 O   0  0  0  0  0  0  0  0  0  0  0  0
   -4.1970   -2.3830   -5.1210 O   0  0  0  0  0  0  0  0  0  0  0  0
    2.2800   -7.4910   -2.3390 H   0  0  0  0  0  0  0  0  0  0  0  0
    3.4890   -5.6620   -3.1410 H   0  0  0  0  0  0  0  0  0  0  0  0
    2.0960   -4.5880   -4.9150 H   0  0  0  0  0  0  0  0  0  0  0  0
   -0.4050   -5.7410   -4.7890 H   0  0  0  0  0  0  0  0  0  0  0  0
   -0.0710   -4.7400   -1.9160 H   0  0  0  0  0  0  0  0  0  0  0  0
   -2.0140   -6.6410   -3.2510 H   0  0  0  0  0  0  0  0  0  0  0  0
   -2.3190   -4.9310   -2.8490 H   0  0  0  0  0  0  0  0  0  0  0  0
    3.1510   -3.6710   -2.6710 H   0  0  0  0  0  0  0  0  0  0  0  0
    2.3860   -7.1730   -4.4170 H   0  0  0  0  0  0  0  0  0  0  0  0
   -2.7180   -6.9400   -1.3070 H   0  0  0  0  0  0  0  0  0  0  0  0
    4.9090   -4.7440    2.1200 H   0  0  0  0  0  0  0  0  0  0  0  0
    5.6360   -6.9430    1.3840 H   0  0  0  0  0  0  0  0  0  0  0  0
    4.5130   -6.6330   -1.3690 H   0  0  0  0  0  0  0  0  0  0  0  0
    2.5400   -8.2390   -0.3190 H   0  0  0  0  0  0  0  0  0  0  0  0
    1.5820   -6.9780    1.6620 H   0  0  0  0  0  0  0  0  0  0  0  0
    4.1460   -8.5370    2.1460 H   0  0  0  0  0  0  0  0  0  0  0  0
    2.5090   -9.2140    1.9500 H   0  0  0  0  0  0  0  0  0  0  0  0
    6.7780   -6.2240   -0.4280 H   0  0  0  0  0  0  0  0  0  0  0  0
    4.7150   -8.7650   -1.2920 H   0  0  0  0  0  0  0  0  0  0  0  0
    2.0680   -7.5190    3.7170 H   0  0  0  0  0  0  0  0  0  0  0  0
    2.1090    0.6010    0.9410 H   0  0  0  0  0  0  0  0  0  0  0  0
    4.2210   -0.3700    1.5970 H   0  0  0  0  0  0  0  0  0  0  0  0
    4.1070   -2.1960   -0.8510 H   0  0  0  0  0  0  0  0  0  0  0  0
    3.7810   -2.9840    2.0940 H   0  0  0  0  0  0  0  0  0  0  0  0
    1.5760   -2.8570   -0.0470 H   0  0  0  0  0  0  0  0  0  0  0  0
    1.4100   -3.4860    2.9090 H   0  0  0  0  0  0  0  0  0  0  0  0
    1.2100   -4.6460    1.5700 H   0  0  0  0  0  0  0  0  0  0  0  0
    4.8270   -0.1870   -1.0330 H   0  0  0  0  0  0  0  0  0  0  0  0
    6.0860   -1.4150    0.1180 H   0  0  0  0  0  0  0  0  0  0  0  0
   -0.2650   -2.3750    1.2520 H   0  0  0  0  0  0  0  0  0  0  0  0
   -0.9650    1.0200   -3.6690 H   0  0  0  0  0  0  0  0  0  0  0  0
    0.8750    2.6900   -3.2150 H   0  0  0  0  0  0  0  0  0  0  0  0
    1.4410    2.0120   -0.8500 H   0  0  0  0  0  0  0  0  0  0  0  0
   -0.0030   -0.0020   -0.0010 H   0  0  0  0  0  0  0  0  0  0  0  0
    0.1020   -1.8890   -1.7600 H   0  0  0  0  0  0  0  0  0  0  0  0
   -2.1580   -1.4950   -2.5810 H   0  0  0  0  0  0  0  0  0  0  0  0
   -2.0810    0.1860   -1.9920 H   0  0  0  0  0  0  0  0  0  0  0  0
    2.5620    0.6480   -2.4040 H   0  0  0  0  0  0  0  0  0  0  0  0
   -0.5990    2.9650   -1.7330 H   0  0  0  0  0  0  0  0  0  0  0  0
   -1.9160   -2.2290   -0.5150 H   0  0  0  0  0  0  0  0  0  0  0  0
   -1.4500    0.5160   -9.0230 H   0  0  0  0  0  0  0  0  0  0  0  0
   -0.0460    2.5260   -8.8570 H   0  0  0  0  0  0  0  0  0  0  0  0
    1.8740    1.1180   -7.0080 H   0  0  0  0  0  0  0  0  0  0  0  0
    0.6050    2.8260   -5.2660 H   0  0  0  0  0  0  0  0  0  0  0  0
   -1.8600    1.9970   -5.2940 H   0  0  0  0  0  0  0  0  0  0  0  0
   -2.6300    3.7870   -6.7490 H   0  0  0  0  0  0  0  0  0  0  0  0
   -0.9840    3.9700   -7.4100 H   0  0  0  0  0  0  0  0  0  0  0  0
    0.5480    0.4340   -9.9330 H   0  0  0  0  0  0  0  0  0  0  0  0
    2.7070    2.9720   -6.9750 H   0  0  0  0  0  0  0  0  0  0  0  0
   -2.0190    4.6060   -4.9010 H   0  0  0  0  0  0  0  0  0  0  0  0
   -1.6660   -4.1280   -5.5340 H   0  0  0  0  0  0  0  0  0  0  0  0
    0.5040   -4.3640   -6.7850 H   0  0  0  0  0  0  0  0  0  0  0  0
    0.0550   -2.7260   -8.6690 H   0  0  0  0  0  0  0  0  0  0  0  0
   -2.1400   -1.4260   -8.4480 H   0  0  0  0  0  0  0  0  0  0  0  0
   -2.5210   -0.6200   -6.0030 H   0  0  0  0  0  0  0  0  0  0  0  0
   -3.3740   -3.4390   -6.6780 H   0  0  0  0  0  0  0  0  0  0  0  0
   -4.2180   -1.9340   -7.1240 H   0  0  0  0  0  0  0  0  0  0  0  0
    1.5600   -2.2610   -7.1860 H   0  0  0  0  0  0  0  0  0  0  0  0
   -1.0140   -4.7350   -8.3620 H   0  0  0  0  0  0  0  0  0  0  0  0
   -3.5700   -1.9760   -4.4980 H   0  0  0  0  0  0  0  0  0  0  0  0
  1  2  1  0
  1  7  1  0
  1 10  1  0
  1 67  1  6
  2  3  1  0
  2  8  1  0
  2 68  1  6
  3  4  1  0
  3  9  1  0
  3 69  1  6
  4  5  1  0
  4 62  1  0
  4 70  1  6
  5  6  1  0
  5 10  1  0
  5 71  1  1
  6 11  1  0
  6 72  1  0
  6 73  1  0
  7 15  1  0
  8 74  1  0
  9 75  1  0
 11 76  1  0
 12 13  1  0
 12 18  1  0
 12 21  1  0
 12 77  1  1
 13 14  1  0
 13 19  1  0
 13 78  1  1
 14 15  1  0
 14 20  1  0
 14 79  1  6
 15 16  1  0
 15 80  1  6
 16 17  1  0
 16 21  1  0
 16 81  1  6
 17 22  1  0
 17 82  1  0
 17 83  1  0
 18 26  1  0
 19 84  1  0
 20 85  1  0
 22 86  1  0
 23 24  1  0
 23 29  1  0
 23 32  1  0
 23 87  1  1
 24 25  1  0
 24 30  1  0
 24 88  1  1
 25 26  1  0
 25 31  1  0
 25 89  1  6
 26 27  1  0
 26 90  1  1
 27 28  1  0
 27 32  1  0
 27 91  1  6
 28 33  1  0
 28 92  1  0
 28 93  1  0
 29 37  1  0
 30 94  1  0
 31 95  1  0
 33 96  1  0
 34 35  1  0
 34 40  1  0
 34 43  1  0
 34 97  1  6
 35 36  1  0
 35 41  1  0
 35 98  1  6
 36 37  1  0
 36 42  1  0
 36 99  1  1
 37 38  1  0
 37100  1  1
 38 39  1  0
 38 43  1  0
 38101  1  1
 39 44  1  0
 39102  1  0
 39103  1  0
 40 48  1  0
 41104  1  0
 42105  1  0
 44106  1  0
 45 46  1  0
 45 51  1  0
 45 54  1  0
 45107  1  6
 46 47  1  0
 46 52  1  0
 46108  1  6
 47 48  1  0
 47 53  1  0
 47109  1  1
 48 49  1  0
 48110  1  1
 49 50  1  0
 49 54  1  0
 49111  1  1
 50 55  1  0
 50112  1  0
 50113  1  0
 51 59  1  0
 52114  1  0
 53115  1  0
 55116  1  0
 56 57  1  0
 56 62  1  0
 56 65  1  0
 56117  1  6
 57 58  1  0
 57 63  1  0
 57118  1  6
 58 59  1  0
 58 64  1  0
 58119  1  6
 59 60  1  0
 59120  1  6
 60 61  1  0
 60 65  1  0
 60121  1  1
 61 66  1  0
 61122  1  0
 61123  1  0
 63124  1  0
 64125  1  0
 66126  1  0
M  END
$$$$