@<TRIPOS>MOLECULE
MOL
147 154 1 0 0
SMALL
bcc


@<TRIPOS>ATOM
      1 C1         -3.2450    2.3812   -2.9016 c3        1 MOL    0.1088
      2 C2         -4.1524    1.7913   -3.9944 c3        1 MOL    0.0960
      3 C3         -4.5150    0.2974   -3.7135 c3        1 MOL    0.0892
      4 C4         -4.8352   -0.3925   -5.0479 c3        1 MOL    0.0975
      5 C5         -3.6386   -0.2858   -6.0233 c3        1 MOL    0.1075
      6 C6         -2.7730    0.9606   -5.7271 c3        1 MOL    0.3003
      7 O1         -3.5973    2.0273   -5.2893 os        1 MOL   -0.4370
      8 O2         -2.1161    1.3494   -6.9277 os        1 MOL   -0.4136
      9 C7         -0.7578    1.7385   -6.7625 c3        1 MOL    0.0892
     10 C8          0.1780    0.5648   -6.3201 c3        1 MOL    0.0960
     11 O3          0.8073    0.8353   -5.0712 os        1 MOL   -0.4370
     12 C9          1.6417    1.9893   -5.0890 c3        1 MOL    0.3003
     13 C10         0.9201    3.2454   -5.6751 c3        1 MOL    0.1075
     14 C11        -0.5852    2.9793   -5.8585 c3        1 MOL    0.0975
     15 O4         -1.2432    4.0980   -6.3999 oh        1 MOL   -0.5937
     16 O5          1.1463    4.3973   -4.8979 oh        1 MOL   -0.5914
     17 O6          2.0213    2.2546   -3.7453 os        1 MOL   -0.4136
     18 C12         3.4262    2.2546   -3.5468 c3        1 MOL    0.0892
     19 C13         3.8978    0.8161   -3.2057 c3        1 MOL    0.0960
     20 O7          3.4517    0.3838   -1.9263 os        1 MOL   -0.4370
     21 C14         3.8950    1.2158   -0.8651 c3        1 MOL    0.3003
     22 C15         3.3636    2.6623   -1.0368 c3        1 MOL    0.1075
     23 C16         3.7488    3.2407   -2.4057 c3        1 MOL    0.0975
     24 O8          5.1161    3.5670   -2.4042 oh        1 MOL   -0.5937
     25 O9          1.9720    2.7443   -0.8318 oh        1 MOL   -0.5914
     26 O10         3.3901    0.6635    0.3387 os        1 MOL   -0.4136
     27 C17         4.0949    1.0900    1.4991 c3        1 MOL    0.0892
     28 C18         4.6297   -0.1716    2.2248 c3        1 MOL    0.0960
     29 O11         3.5840   -0.9678    2.7673 os        1 MOL   -0.4370
     30 C19         2.7743   -0.2752    3.7063 c3        1 MOL    0.3003
     31 C20         2.0959    0.9572    3.0587 c3        1 MOL    0.1075
     32 C21         3.1301    1.8832    2.3981 c3        1 MOL    0.0975
     33 O12         3.8593    2.5769    3.3792 oh        1 MOL   -0.5937
     34 O13         1.0881    0.5933    2.1435 oh        1 MOL   -0.5914
     35 O14         1.7542   -1.1716    4.1235 os        1 MOL   -0.4136
     36 C22         1.6287   -1.2848    5.5344 c3        1 MOL    0.0892
     37 C23         0.9316   -2.6454    5.8296 c3        1 MOL    0.0960
     38 O15        -0.4801   -2.5150    5.8642 os        1 MOL   -0.4370
     39 C24        -0.9829   -1.6869    6.9152 c3        1 MOL    0.3003
     40 C25        -0.0497   -0.4981    7.2827 c3        1 MOL    0.1075
     41 C26         0.8091   -0.0862    6.0757 c3        1 MOL    0.0975
     42 O16         1.6882    0.9467    6.4478 oh        1 MOL   -0.5937
     43 O17        -0.7766    0.5800    7.8221 oh        1 MOL   -0.5914
     44 O18        -2.3132   -1.2214    6.6589 os        1 MOL   -0.4136
     45 C27        -2.7810   -1.3924    5.3210 c3        1 MOL    0.0892
     46 C28        -3.8773   -0.3325    5.0114 c3        1 MOL    0.0960
     47 O19        -4.3255   -0.3939    3.6633 os        1 MOL   -0.4370
     48 C29        -4.4408   -1.7078    3.1212 c3        1 MOL    0.3003
     49 C30        -4.6067   -2.8183    4.1794 c3        1 MOL    0.1075
     50 C31        -3.3897   -2.8169    5.1338 c3        1 MOL    0.0975
     51 O20        -2.4124   -3.6845    4.6145 oh        1 MOL   -0.5937
     52 O21        -5.7929   -2.6286    4.9117 oh        1 MOL   -0.5914
     53 O22        -5.5515   -1.7483    2.2452 os        1 MOL   -0.4136
     54 C32        -5.2660   -1.1151    1.0057 c3        1 MOL    0.0892
     55 C33        -6.4722   -0.2270    0.5829 c3        1 MOL    0.0960
     56 O23        -6.3219    0.4049   -0.6892 os        1 MOL   -0.4370
     57 C34        -5.3693   -0.1918   -1.5602 c3        1 MOL    0.3003
     58 O24        -5.6673    0.2336   -2.8807 os        1 MOL   -0.4136
     59 C35        -5.4121   -1.7363   -1.4858 c3        1 MOL    0.1075
     60 C36        -5.0190   -2.2072   -0.0639 c3        1 MOL    0.0975
     61 O25        -3.6810   -2.6344   -0.0290 oh        1 MOL   -0.5937
     62 O26        -6.7092   -2.1902   -1.7847 oh        1 MOL   -0.5914
     63 C37        -6.7463    0.8726    1.6225 c3        1 MOL    0.1088
     64 O27        -7.2262    0.3295    2.8239 oh        1 MOL   -0.5967
     65 C38        -3.4005    1.1038    5.2829 c3        1 MOL    0.1088
     66 O28        -3.5091    1.4139    6.6468 oh        1 MOL   -0.5967
     67 C39         1.4808   -3.4227    7.0476 c3        1 MOL    0.1088
     68 O29         2.7580   -3.9296    6.7683 oh        1 MOL   -0.5967
     69 C40         5.7591    0.0910    3.2478 c3        1 MOL    0.1088
     70 O30         6.9204    0.5316    2.5939 oh        1 MOL   -0.5967
     71 C41         5.4065    0.5865   -3.4279 c3        1 MOL    0.1088
     72 O31         5.7366   -0.7329   -3.0946 oh        1 MOL   -0.5967
     73 C42         1.1995    0.1527   -7.4040 c3        1 MOL    0.1088
     74 O32         0.5682   -0.5543   -8.4374 oh        1 MOL   -0.5967
     75 O33        -4.1199   -0.2353   -7.3434 oh        1 MOL   -0.5914
     76 O34        -5.1459   -1.7412   -4.8193 oh        1 MOL   -0.5937
     77 O35        -2.9264    3.7154   -3.1925 oh        1 MOL   -0.5967
     78 H1         -2.3010    1.7996   -2.8331 h1        1 MOL    0.0618
     79 H2         -3.7475    2.3250   -1.9111 h1        1 MOL    0.0618
     80 H3         -5.1037    2.3675   -3.9632 h1        1 MOL    0.1047
     81 H4         -3.6282   -0.2330   -3.2851 h1        1 MOL    0.0814
     82 H5         -5.7213    0.1251   -5.4875 h1        1 MOL    0.0883
     83 H6         -2.9781   -1.1784   -5.9034 h1        1 MOL    0.0884
     84 H7         -2.0502    0.6887   -4.9205 h2        1 MOL    0.0846
     85 H8         -0.4281    2.0615   -7.7736 h1        1 MOL    0.0814
     86 H9         -0.4450   -0.3402   -6.1591 h1        1 MOL    0.1047
     87 H10         2.5185    1.7629   -5.7401 h2        1 MOL    0.0846
     88 H11         1.3559    3.4439   -6.6793 h1        1 MOL    0.0884
     89 H12        -1.0162    2.7798   -4.8566 h1        1 MOL    0.0883
     90 H13        -0.8132    4.3136   -7.2686 ho        1 MOL    0.4193
     91 H14         0.6230    4.3086   -4.0593 ho        1 MOL    0.4301
     92 H15         3.9686    2.6297   -4.4464 h1        1 MOL    0.0814
     93 H16         3.4042    0.1454   -3.9414 h1        1 MOL    0.1047
     94 H17         5.0084    1.2110   -0.8460 h2        1 MOL    0.0846
     95 H18         3.8428    3.3023   -0.2638 h1        1 MOL    0.0884
     96 H19         3.1622    4.1782   -2.5633 h1        1 MOL    0.0883
     97 H20         5.2725    4.1697   -3.1758 ho        1 MOL    0.4193
     98 H21         1.5378    1.9855   -1.2992 ho        1 MOL    0.4301
     99 H22         4.9560    1.7565    1.2616 h1        1 MOL    0.0814
    100 H23         5.1021   -0.7955    1.4342 h1        1 MOL    0.1047
    101 H24         3.4046    0.0770    4.5544 h2        1 MOL    0.0846
    102 H25         1.5976    1.5398    3.8607 h1        1 MOL    0.0884
    103 H26         2.5893    2.6268    1.7668 h1        1 MOL    0.0883
    104 H27         3.2759    3.3043    3.7185 ho        1 MOL    0.4193
    105 H28         1.4167   -0.1660    1.5976 ho        1 MOL    0.4301
    106 H29         2.6284   -1.3147    6.0265 h1        1 MOL    0.0814
    107 H30         1.1418   -3.3109    4.9625 h1        1 MOL    0.1047
    108 H31        -1.0595   -2.3262    7.8227 h2        1 MOL    0.0846
    109 H32         0.6443   -0.8202    8.0848 h1        1 MOL    0.0884
    110 H33         0.1217    0.2625    5.2685 h1        1 MOL    0.0883
    111 H34         1.1824    1.7986    6.3892 ho        1 MOL    0.4193
    112 H35        -1.0906    1.1471    7.0736 ho        1 MOL    0.4301
    113 H36        -1.9700   -1.2110    4.5757 h1        1 MOL    0.0814
    114 H37        -4.7517   -0.5118    5.6778 h1        1 MOL    0.1047
    115 H38        -3.4996   -1.9425    2.5672 h2        1 MOL    0.0846
    116 H39        -4.6560   -3.8052    3.6604 h1        1 MOL    0.0884
    117 H40        -3.7261   -3.1882    6.1329 h1        1 MOL    0.0883
    118 H41        -2.6405   -4.5998    4.9251 ho        1 MOL    0.4193
    119 H42        -6.5379   -2.9657    4.3519 ho        1 MOL    0.4301
    120 H43        -4.3796   -0.4345    1.0574 h1        1 MOL    0.0814
    121 H44        -7.3769   -0.8730    0.5301 h1        1 MOL    0.1047
    122 H45        -4.3620    0.1664   -1.2409 h2        1 MOL    0.0846
    123 H46        -4.6900   -2.1709   -2.2148 h1        1 MOL    0.0884
    124 H47        -5.6478   -3.0897    0.1879 h1        1 MOL    0.0883
    125 H48        -3.1127   -1.8683   -0.3020 ho        1 MOL    0.4193
    126 H49        -6.7998   -2.1849   -2.7727 ho        1 MOL    0.4301
    127 H50        -5.8136    1.4383    1.8308 h1        1 MOL    0.0618
    128 H51        -7.4872    1.5987    1.2158 h1        1 MOL    0.0618
    129 H52        -8.1790    0.0964    2.6711 ho        1 MOL    0.4121
    130 H53        -4.0117    1.8258    4.6926 h1        1 MOL    0.0618
    131 H54        -2.3470    1.2296    4.9583 h1        1 MOL    0.0618
    132 H55        -4.4718    1.5798    6.8302 ho        1 MOL    0.4121
    133 H56         1.4976   -2.8110    7.9743 h1        1 MOL    0.0618
    134 H57         0.8094   -4.2845    7.2462 h1        1 MOL    0.0618
    135 H58         3.4161   -3.2635    7.0994 ho        1 MOL    0.4121
    136 H59         5.4585    0.8089    4.0390 h1        1 MOL    0.0618
    137 H60         5.9992   -0.8657    3.7575 h1        1 MOL    0.0618
    138 H61         6.9025    1.5249    2.6093 ho        1 MOL    0.4121
    139 H62         5.6433    0.7635   -4.5023 h1        1 MOL    0.0618
    140 H63         6.0232    1.2879   -2.8294 h1        1 MOL    0.0618
    141 H64         6.7126   -0.8253   -3.2557 ho        1 MOL    0.4121
    142 H65         1.9604   -0.5155   -6.9454 h1        1 MOL    0.0618
    143 H66         1.7380    1.0385   -7.8122 h1        1 MOL    0.0618
    144 H67         0.1467    0.1183   -9.0334 ho        1 MOL    0.4121
    145 H68        -4.3904   -1.1598   -7.5868 ho        1 MOL    0.4301
    146 H69        -5.6143   -2.0701   -5.6295 ho        1 MOL    0.4193
    147 H70        -3.7352    4.2534   -2.9881 ho        1 MOL    0.4121
@<TRIPOS>BOND
     1    1    2 1
     2    2    3 1
     3    3    4 1
     4    4    5 1
     5    5    6 1
     6    9   10 1
     7   12   13 1
     8   13   14 1
     9   14   15 1
    10   13   16 1
    11   18   19 1
    12   21   22 1
    13   22   23 1
    14   23   24 1
    15   22   25 1
    16   27   28 1
    17   30   31 1
    18   31   32 1
    19   32   33 1
    20   31   34 1
    21   36   37 1
    22   39   40 1
    23   40   41 1
    24   41   42 1
    25   40   43 1
    26   45   46 1
    27   48   49 1
    28   49   50 1
    29   50   51 1
    30   49   52 1
    31   54   55 1
    32   57   59 1
    33   59   60 1
    34   60   61 1
    35   59   62 1
    36   55   63 1
    37   63   64 1
    38   46   65 1
    39   65   66 1
    40   37   67 1
    41   67   68 1
    42   28   69 1
    43   69   70 1
    44   19   71 1
    45   71   72 1
    46   10   73 1
    47   73   74 1
    48    5   75 1
    49    4   76 1
    50    1   77 1
    51   14    9 1
    52   23   18 1
    53   32   27 1
    54   41   36 1
    55   50   45 1
    56   60   54 1
    57    1   78 1
    58    1   79 1
    59    2   80 1
    60    3   81 1
    61    4   82 1
    62    5   83 1
    63    6   84 1
    64    9   85 1
    65   10   86 1
    66   12   87 1
    67   13   88 1
    68   14   89 1
    69   18   92 1
    70   19   93 1
    71   21   94 1
    72   22   95 1
    73   23   96 1
    74   27   99 1
    75   28  100 1
    76   30  101 1
    77   31  102 1
    78   32  103 1
    79   36  106 1
    80   37  107 1
    81   39  108 1
    82   40  109 1
    83   41  110 1
    84   45  113 1
    85   46  114 1
    86   48  115 1
    87   49  116 1
    88   50  117 1
    89   54  120 1
    90   55  121 1
    91   57  122 1
    92   59  123 1
    93   60  124 1
    94   63  127 1
    95   63  128 1
    96   65  130 1
    97   65  131 1
    98   67  133 1
    99   67  134 1
   100   69  136 1
   101   69  137 1
   102   71  139 1
   103   71  140 1
   104   73  142 1
   105   73  143 1
   106  126   62 1
   107   26   27 1
   108   26   21 1
   109   53   48 1
   110   53   54 1
   111  104   33 1
   112   29   30 1
   113   29   28 1
   114  105   34 1
   115  118   51 1
   116   56   55 1
   117   56   57 1
   118  132   66 1
   119    7    6 1
   120    7    2 1
   121   58   57 1
   122   58    3 1
   123  135   68 1
   124  111   42 1
   125  144   74 1
   126  112   43 1
   127  138   70 1
   128   20   19 1
   129   20   21 1
   130   38   39 1
   131   38   37 1
   132   35   36 1
   133   35   30 1
   134    8    6 1
   135    8    9 1
   136   90   15 1
   137  141   72 1
   138   91   16 1
   139  145   75 1
   140   11   10 1
   141   11   12 1
   142  119   52 1
   143   44   39 1
   144   44   45 1
   145  146   76 1
   146  147   77 1
   147   97   24 1
   148   47   46 1
   149   47   48 1
   150   98   25 1
   151  129   64 1
   152   17   12 1
   153   17   18 1
   154  125   61 1
@<TRIPOS>SUBSTRUCTURE
     1 MOL     1 RESIDUE           4 A     MOL     0 ROOT
