@<TRIPOS>MOLECULE
MOL
  147   154     1     0     0
SMALL
bcc


@<TRIPOS>ATOM
      1 C1           4.1500     2.4200     1.7010 c3         1 MOL       0.108400
      2 C2           5.1400     2.8330     0.6020 c3         1 MOL       0.097386
      3 C3           4.4180     3.1180    -0.7480 c3         1 MOL       0.109386
      4 C4           5.4400     2.9690    -1.8750 c3         1 MOL       0.094100
      5 C5           5.9750     1.5240    -1.8910 c3         1 MOL       0.094671
      6 C6           6.0450     0.9000    -0.4620 c3         1 MOL       0.297043
      7 O1           6.2320     1.9120     0.5150 os         1 MOL      -0.423171
      8 O2           7.1650     0.0290    -0.4170 os         1 MOL      -0.410171
      9 C7           6.8930    -1.3080    -0.0150 c3         1 MOL       0.109386
     10 C8           5.8630    -2.0580    -0.9380 c3         1 MOL       0.097386
     11 O3           4.5970    -2.2700    -0.3320 os         1 MOL      -0.423171
     12 C9           4.7040    -2.9230     0.9190 c3         1 MOL       0.297043
     13 C10          5.2770    -1.9380     1.9490 c3         1 MOL       0.094671
     14 C11          6.6700    -1.4220     1.5280 c3         1 MOL       0.094100
     15 O4           7.6700    -2.2270     2.1070 oh         1 MOL      -0.595371
     16 O5           4.4090    -0.8590     2.2130 oh         1 MOL      -0.588514
     17 O6           3.4070    -3.2920     1.3550 os         1 MOL      -0.410171
     18 C12          3.0640    -4.6380     1.0530 c3         1 MOL       0.109386
     19 C13          2.4610    -4.7300    -0.3740 c3         1 MOL       0.097386
     20 O7           1.2010    -4.0790    -0.4760 os         1 MOL      -0.423171
     21 C14          0.2200    -4.6030     0.4060 c3         1 MOL       0.297043
     22 C15          0.6690    -4.4680     1.8860 c3         1 MOL       0.094671
     23 C16          2.0490    -5.1050     2.1160 c3         1 MOL       0.094100
     24 O8           1.9260    -6.5040     2.1060 oh         1 MOL      -0.595371
     25 O9           0.6610    -3.1270     2.3210 oh         1 MOL      -0.588514
     26 O10         -0.9640    -3.8530     0.1990 os         1 MOL      -0.410171
     27 C17         -2.1420    -4.5090     0.6550 c3         1 MOL       0.109386
     28 C18         -3.1070    -4.6470    -0.5500 c3         1 MOL       0.097386
     29 O11         -3.5700    -3.3850    -1.0100 os         1 MOL      -0.423171
     30 C19         -4.2800    -2.6490    -0.0240 c3         1 MOL       0.297043
     31 C20         -3.4010    -2.3730     1.2220 c3         1 MOL       0.094671
     32 C21         -2.7710    -3.6640     1.7760 c3         1 MOL       0.094100
     33 O12         -3.7360    -4.4250     2.4590 oh         1 MOL      -0.595371
     34 O13         -2.4130    -1.4010     0.9680 oh         1 MOL      -0.588514
     35 O14         -4.6260    -1.4000    -0.6040 os         1 MOL      -0.410171
     36 C22         -6.0130    -1.0990    -0.5360 c3         1 MOL       0.109386
     37 C23         -6.3130    -0.0660    -1.6550 c3         1 MOL       0.097386
     38 O15         -5.9970     1.2600    -1.2660 os         1 MOL      -0.423171
     39 C24         -6.6680     1.7620    -0.1050 c3         1 MOL       0.297043
     40 C25         -7.2750     0.6700     0.8190 c3         1 MOL       0.094671
     41 C26         -6.3500    -0.5530     0.8760 c3         1 MOL       0.094100
     42 O16         -6.9430    -1.5730     1.6420 oh         1 MOL      -0.595371
     43 O17         -7.5420     1.1800     2.1050 oh         1 MOL      -0.588514
     44 O18         -5.8190     2.5950     0.6910 os         1 MOL      -0.410171
     45 C27         -4.6820     3.1470     0.0360 c3         1 MOL       0.109386
     46 C28         -3.6410     3.5600     1.1280 c3         1 MOL       0.097386
     47 O19         -2.7830     4.6360     0.7540 os         1 MOL      -0.423171
     48 C29         -2.5080     4.6380    -0.6340 c3         1 MOL       0.297043
     49 C30         -3.7840     5.0410    -1.4100 c3         1 MOL       0.094671
     50 C31         -5.0560     4.3980    -0.7900 c3         1 MOL       0.094100
     51 O20         -5.9570     4.0570    -1.8120 oh         1 MOL      -0.595371
     52 O21         -3.9250     6.4390    -1.4800 oh         1 MOL      -0.588514
     53 O22         -1.4700     5.5640    -0.9050 os         1 MOL      -0.410171
     54 C32         -0.1900     4.9890    -0.6780 c3         1 MOL       0.109386
     55 C33          0.7680     6.0740    -0.1000 c3         1 MOL       0.097386
     56 O23          2.1280     5.6580     0.0560 os         1 MOL      -0.423171
     57 C34          2.4940     4.4920    -0.6680 c3         1 MOL       0.297043
     58 O24          3.9110     4.4490    -0.7450 os         1 MOL      -0.410171
     59 C35          1.9050     4.5110    -2.0950 c3         1 MOL       0.094671
     60 C36          0.3630     4.4490    -2.0240 c3         1 MOL       0.094100
     61 O25         -0.0900     3.1380    -2.2540 oh         1 MOL      -0.595371
     62 O26          2.2930     5.6890    -2.7580 oh         1 MOL      -0.588514
     63 C37          0.2750     6.5740     1.2690 c3         1 MOL       0.108400
     64 O27         -0.9420     7.2630     1.1530 oh         1 MOL      -0.589371
     65 C38         -2.7890     2.3690     1.6040 c3         1 MOL       0.108400
     66 O28         -3.5870     1.3950     2.2190 oh         1 MOL      -0.589371
     67 C39         -7.7120    -0.1740    -2.3070 c3         1 MOL       0.108400
     68 O29         -7.7320    -1.2090    -3.2540 oh         1 MOL      -0.589371
     69 C40         -4.2550    -5.6640    -0.3600 c3         1 MOL       0.108400
     70 O30         -3.7500    -6.9730    -0.3000 oh         1 MOL      -0.589371
     71 C41          2.4550    -6.1570    -0.9590 c3         1 MOL       0.108400
     72 O31          1.9390    -6.1310    -2.2620 oh         1 MOL      -0.589371
     73 C42          6.4130    -3.3730    -1.5410 c3         1 MOL       0.108400
     74 O32          7.2660    -3.1030    -2.6210 oh         1 MOL      -0.589371
     75 O33          7.2210     1.4820    -2.5450 oh         1 MOL      -0.588514
     76 O34          4.8420     3.2530    -3.1150 oh         1 MOL      -0.595371
     77 O35          4.8300     2.0610     2.8730 oh         1 MOL      -0.589371
     78 H1           3.5410     1.5610     1.3600 h1         1 MOL       0.061343
     79 H2           3.4450     3.2550     1.9140 h1         1 MOL       0.061343
     80 H3           5.5880     3.7960     0.9350 h1         1 MOL       0.102557
     81 H4           3.6320     2.3440    -0.9290 h1         1 MOL       0.077271
     82 H5           6.2860     3.6740    -1.6750 h1         1 MOL       0.090700
     83 H6           5.2720     0.8980    -2.4840 h1         1 MOL       0.091557
     84 H7           5.0860     0.3750    -0.2550 h2         1 MOL       0.073129
     85 H8           7.8660    -1.8110    -0.2000 h1         1 MOL       0.077271
     86 H9           5.6670    -1.4080    -1.8160 h1         1 MOL       0.102557
     87 H10          5.3940    -3.7950     0.8740 h2         1 MOL       0.073129
     88 H11          5.3870    -2.4900     2.9090 h1         1 MOL       0.091557
     89 H12          6.8010    -0.4110     1.9740 h1         1 MOL       0.090700
     90 H13          7.5670    -3.1440     1.7390 ho         1 MOL       0.412000
     91 H14          3.8420    -0.6940     1.4200 ho         1 MOL       0.429286
     92 H15          3.9450    -5.3160     1.1340 h1         1 MOL       0.077271
     93 H16          3.1470    -4.1700    -1.0420 h1         1 MOL       0.102557
     94 H17          0.0430    -5.6730     0.1510 h2         1 MOL       0.073129
     95 H18         -0.0580    -5.0170     2.5220 h1         1 MOL       0.091557
     96 H19          2.4100    -4.7860     3.1240 h1         1 MOL       0.090700
     97 H20          2.7290    -6.8700     2.5610 ho         1 MOL       0.412000
     98 H21          1.0320    -2.5540     1.6000 ho         1 MOL       0.429286
     99 H22         -1.9390    -5.5250     1.0690 h1         1 MOL       0.077271
    100 H23         -2.4930    -5.0630    -1.3810 h1         1 MOL       0.102557
    101 H24         -5.1730    -3.2290     0.3050 h2         1 MOL       0.073129
    102 H25         -4.0540    -1.9610     2.0170 h1         1 MOL       0.091557
    103 H26         -1.9700    -3.3850     2.4980 h1         1 MOL       0.090700
    104 H27         -3.9050    -3.9710     3.3250 ho         1 MOL       0.412000
    105 H28         -1.9890    -1.6030     0.0950 ho         1 MOL       0.429286
    106 H29         -6.6280    -2.0030    -0.7580 h1         1 MOL       0.077271
    107 H30         -5.6070    -0.2940    -2.4850 h1         1 MOL       0.102557
    108 H31         -7.5140     2.3930    -0.4530 h2         1 MOL       0.073129
    109 H32         -8.2550     0.3520     0.4180 h1         1 MOL       0.091557
    110 H33         -5.4010    -0.2230     1.3530 h1         1 MOL       0.090700
    111 H34         -6.7520    -1.3700     2.5950 ho         1 MOL       0.412000
    112 H35         -6.6810     1.2770     2.5920 ho         1 MOL       0.429286
    113 H36         -4.1730     2.4100    -0.6230 h1         1 MOL       0.077271
    114 H37         -4.2140     3.9250     2.0100 h1         1 MOL       0.102557
    115 H38         -2.2190     3.6160    -0.9820 h2         1 MOL       0.073129
    116 H39         -3.6600     4.6670    -2.4500 h1         1 MOL       0.091557
    117 H40         -5.5480     5.1180    -0.0940 h1         1 MOL       0.090700
    118 H41         -6.3290     4.9080    -2.1600 ho         1 MOL       0.412000
    119 H42         -3.9450     6.7850    -0.5480 ho         1 MOL       0.429286
    120 H43         -0.2220     4.1650     0.0760 h1         1 MOL       0.077271
    121 H44          0.7660     6.9410    -0.7970 h1         1 MOL       0.102557
    122 H45          2.0910     3.6190    -0.1030 h2         1 MOL       0.073129
    123 H46          2.2710     3.6250    -2.6660 h1         1 MOL       0.091557
    124 H47         -0.0420     5.0800    -2.8470 h1         1 MOL       0.090700
    125 H48          0.3030     2.5540    -1.5520 ho         1 MOL       0.412000
    126 H49          3.2280     5.5580    -3.0620 ho         1 MOL       0.429286
    127 H50          0.1360     5.7120     1.9560 h1         1 MOL       0.061343
    128 H51          1.0420     7.2410     1.7250 h1         1 MOL       0.061343
    129 H52         -0.7320     8.1500     0.7600 ho         1 MOL       0.407143
    130 H53         -2.0090     2.7250     2.3160 h1         1 MOL       0.061343
    131 H54         -2.2610     1.9070     0.7430 h1         1 MOL       0.061343
    132 H55         -3.8270     1.7460     3.1150 ho         1 MOL       0.407143
    133 H56         -8.5260    -0.3280    -1.5700 h1         1 MOL       0.061343
    134 H57         -7.9330     0.7750    -2.8390 h1         1 MOL       0.061343
    135 H58         -7.9320    -2.0480    -2.7610 ho         1 MOL       0.407143
    136 H59         -4.8760    -5.4440     0.5350 h1         1 MOL       0.061343
    137 H60         -4.9290    -5.6010    -1.2400 h1         1 MOL       0.061343
    138 H61         -3.5890    -7.1760     0.6600 ho         1 MOL       0.407143
    139 H62          3.5010    -6.5390    -0.9850 h1         1 MOL       0.061343
    140 H63          1.8580    -6.8570    -0.3400 h1         1 MOL       0.061343
    141 H64          1.9920    -7.0630    -2.5970 ho         1 MOL       0.407143
    142 H65          5.5640    -3.9790    -1.9220 h1         1 MOL       0.061343
    143 H66          6.9360    -3.9860    -0.7730 h1         1 MOL       0.061343
    144 H67          8.1750    -2.9630    -2.2460 ho         1 MOL       0.407143
    145 H68          7.8690     1.9900    -1.9890 ho         1 MOL       0.429286
    146 H69          5.1790     4.1390    -3.4110 ho         1 MOL       0.412000
    147 H70          5.1660     2.9040     3.2760 ho         1 MOL       0.407143
@<TRIPOS>BOND
     1     1     2 1   
     2     2     3 1   
     3     3     4 1   
     4     4     5 1   
     5     5     6 1   
     6     6     7 1   
     7     6     8 1   
     8     8     9 1   
     9     9    10 1   
    10    10    11 1   
    11    11    12 1   
    12    12    13 1   
    13    13    14 1   
    14    14    15 1   
    15    13    16 1   
    16    12    17 1   
    17    17    18 1   
    18    18    19 1   
    19    19    20 1   
    20    20    21 1   
    21    21    22 1   
    22    22    23 1   
    23    23    24 1   
    24    22    25 1   
    25    21    26 1   
    26    26    27 1   
    27    27    28 1   
    28    28    29 1   
    29    29    30 1   
    30    30    31 1   
    31    31    32 1   
    32    32    33 1   
    33    31    34 1   
    34    30    35 1   
    35    35    36 1   
    36    36    37 1   
    37    37    38 1   
    38    38    39 1   
    39    39    40 1   
    40    40    41 1   
    41    41    42 1   
    42    40    43 1   
    43    39    44 1   
    44    44    45 1   
    45    45    46 1   
    46    46    47 1   
    47    47    48 1   
    48    48    49 1   
    49    49    50 1   
    50    50    51 1   
    51    49    52 1   
    52    48    53 1   
    53    53    54 1   
    54    54    55 1   
    55    55    56 1   
    56    56    57 1   
    57    57    58 1   
    58    57    59 1   
    59    59    60 1   
    60    60    61 1   
    61    59    62 1   
    62    55    63 1   
    63    63    64 1   
    64    46    65 1   
    65    65    66 1   
    66    37    67 1   
    67    67    68 1   
    68    28    69 1   
    69    69    70 1   
    70    19    71 1   
    71    71    72 1   
    72    10    73 1   
    73    73    74 1   
    74     5    75 1   
    75     4    76 1   
    76     1    77 1   
    77     7     2 1   
    78    58     3 1   
    79    14     9 1   
    80    23    18 1   
    81    32    27 1   
    82    41    36 1   
    83    50    45 1   
    84    60    54 1   
    85     1    78 1   
    86     1    79 1   
    87     2    80 1   
    88     3    81 1   
    89     4    82 1   
    90     5    83 1   
    91     6    84 1   
    92     9    85 1   
    93    10    86 1   
    94    12    87 1   
    95    13    88 1   
    96    14    89 1   
    97    15    90 1   
    98    16    91 1   
    99    18    92 1   
   100    19    93 1   
   101    21    94 1   
   102    22    95 1   
   103    23    96 1   
   104    24    97 1   
   105    25    98 1   
   106    27    99 1   
   107    28   100 1   
   108    30   101 1   
   109    31   102 1   
   110    32   103 1   
   111    33   104 1   
   112    34   105 1   
   113    36   106 1   
   114    37   107 1   
   115    39   108 1   
   116    40   109 1   
   117    41   110 1   
   118    42   111 1   
   119    43   112 1   
   120    45   113 1   
   121    46   114 1   
   122    48   115 1   
   123    49   116 1   
   124    50   117 1   
   125    51   118 1   
   126    52   119 1   
   127    54   120 1   
   128    55   121 1   
   129    57   122 1   
   130    59   123 1   
   131    60   124 1   
   132    61   125 1   
   133    62   126 1   
   134    63   127 1   
   135    63   128 1   
   136    64   129 1   
   137    65   130 1   
   138    65   131 1   
   139    66   132 1   
   140    67   133 1   
   141    67   134 1   
   142    68   135 1   
   143    69   136 1   
   144    69   137 1   
   145    70   138 1   
   146    71   139 1   
   147    71   140 1   
   148    72   141 1   
   149    73   142 1   
   150    73   143 1   
   151    74   144 1   
   152    75   145 1   
   153    76   146 1   
   154    77   147 1   
@<TRIPOS>SUBSTRUCTURE
     1 MOL         1 TEMP              0 ****  ****    0 ROOT
