@<TRIPOS>MOLECULE
MOL
   53    54     1     0     0
SMALL
bcc


@<TRIPOS>ATOM
      1 C1           7.4860    -1.8150    -0.1650 c3         1 MOL      -0.093100
      2 C2           5.9740    -1.6530    -0.0320 c3         1 MOL      -0.080400
      3 C3           5.5960    -0.1890     0.2350 c3         1 MOL      -0.080400
      4 C4           4.0950    -0.0070     0.5060 c3         1 MOL      -0.074400
      5 C5           3.2370    -0.2140    -0.7520 c3         1 MOL      -0.041100
      6 C6           1.7930     0.1210    -0.4790 ca         1 MOL      -0.001300
      7 C7           1.2040     1.2540    -1.0540 ca         1 MOL      -0.249500
      8 C8          -0.1390     1.5670    -0.8060 ca         1 MOL       0.162100
      9 C9          -0.9170     0.7430     0.0380 ca         1 MOL      -0.118300
     10 C10         -0.3240    -0.4120     0.6000 ca         1 MOL       0.162100
     11 C11          1.0200    -0.7100     0.3420 ca         1 MOL      -0.249500
     12 O1          -1.0690    -1.2660     1.4140 oh         1 MOL      -0.492100
     13 C12         -2.3900     1.0630     0.2760 c3         1 MOL       0.041800
     14 C13         -2.7040     1.0830     1.7600 c2         1 MOL      -0.151200
     15 C14         -3.8420     0.5800     2.2850 c2         1 MOL      -0.124400
     16 C15         -4.8580    -0.1530     1.4350 c3         1 MOL      -0.039200
     17 C16         -4.7580     0.2190    -0.0480 c3         1 MOL      -0.068400
     18 C17         -3.3010     0.0930    -0.5210 c3         1 MOL      -0.026500
     19 C18         -3.1820     0.3130    -2.0260 c2         1 MOL      -0.104400
     20 C19         -3.5770     1.4640    -2.5990 c2         1 MOL      -0.227000
     21 C20         -2.5890    -0.7610    -2.9000 c3         1 MOL      -0.058900
     22 C21         -4.0580     0.6590     3.7720 c3         1 MOL      -0.053900
     23 O2          -0.6990     2.6970    -1.4040 oh         1 MOL      -0.492100
     24 H1           7.8670    -1.1970    -1.0060 hc         1 MOL       0.033367
     25 H2           7.9920    -1.5070     0.7750 hc         1 MOL       0.033367
     26 H3           7.7300    -2.8790    -0.3660 hc         1 MOL       0.033367
     27 H4           5.6180    -2.2930     0.8050 hc         1 MOL       0.038200
     28 H5           5.5010    -2.0040    -0.9730 hc         1 MOL       0.038200
     29 H6           6.1510     0.1670     1.1310 hc         1 MOL       0.041200
     30 H7           5.9040     0.4450    -0.6250 hc         1 MOL       0.041200
     31 H8           3.9360     1.0290     0.8780 hc         1 MOL       0.045200
     32 H9           3.7730    -0.7050     1.3090 hc         1 MOL       0.045200
     33 H10          3.2970    -1.2700    -1.0930 hc         1 MOL       0.050700
     34 H11          3.6320     0.4240    -1.5720 hc         1 MOL       0.050700
     35 H12          1.7890     1.8990    -1.6980 ha         1 MOL       0.134500
     36 H13          1.4630    -1.5970     0.7780 ha         1 MOL       0.134500
     37 H14         -0.6650    -2.0980     1.8260 ho         1 MOL       0.418500
     38 H15         -2.6060     2.0990    -0.0590 hc         1 MOL       0.080700
     39 H16         -2.0030     1.5950     2.4150 ha         1 MOL       0.124000
     40 H17         -4.6970    -1.2470     1.5540 hc         1 MOL       0.045200
     41 H18         -5.8840     0.0820     1.7900 hc         1 MOL       0.045200
     42 H19         -5.4090    -0.4630    -0.6380 hc         1 MOL       0.042200
     43 H20         -5.1260     1.2590    -0.1860 hc         1 MOL       0.042200
     44 H21         -2.9860    -0.9490    -0.2930 hc         1 MOL       0.073700
     45 H22         -3.4780     1.6120    -3.6700 ha         1 MOL       0.111000
     46 H23         -3.9980     2.2730    -2.0120 ha         1 MOL       0.111000
     47 H24         -3.3340    -1.0830    -3.6570 hc         1 MOL       0.039700
     48 H25         -2.2820    -1.6490    -2.3110 hc         1 MOL       0.039700
     49 H26         -1.6900    -0.3650    -3.4200 hc         1 MOL       0.039700
     50 H27         -5.0020     0.1550     4.0660 hc         1 MOL       0.038033
     51 H28         -3.2170     0.1650     4.3030 hc         1 MOL       0.038033
     52 H29         -4.1130     1.7230     4.0860 hc         1 MOL       0.038033
     53 H30         -0.1610     3.2980    -2.0170 ho         1 MOL       0.418500
@<TRIPOS>BOND
     1     1     2 1   
     2     2     3 1   
     3     3     4 1   
     4     4     5 1   
     5     5     6 1   
     6     6     7 ar  
     7     7     8 ar  
     8     8     9 ar  
     9     9    10 ar  
    10    10    11 ar  
    11    10    12 1   
    12     9    13 1   
    13    13    14 1   
    14    14    15 2   
    15    15    16 1   
    16    16    17 1   
    17    17    18 1   
    18    18    19 1   
    19    19    20 2   
    20    19    21 1   
    21    15    22 1   
    22     8    23 1   
    23    11     6 ar  
    24    18    13 1   
    25     1    24 1   
    26     1    25 1   
    27     1    26 1   
    28     2    27 1   
    29     2    28 1   
    30     3    29 1   
    31     3    30 1   
    32     4    31 1   
    33     4    32 1   
    34     5    33 1   
    35     5    34 1   
    36     7    35 1   
    37    11    36 1   
    38    12    37 1   
    39    13    38 1   
    40    14    39 1   
    41    16    40 1   
    42    16    41 1   
    43    17    42 1   
    44    17    43 1   
    45    18    44 1   
    46    20    45 1   
    47    20    46 1   
    48    21    47 1   
    49    21    48 1   
    50    21    49 1   
    51    22    50 1   
    52    22    51 1   
    53    22    52 1   
    54    23    53 1   
@<TRIPOS>SUBSTRUCTURE
     1 MOL         1 TEMP              0 ****  ****    0 ROOT
