@<TRIPOS>MOLECULE
MOL
53 54 1 0 0
SMALL
bcc


@<TRIPOS>ATOM
      1 C1         -1.4778    5.6491    0.6074 c3        1 MOL   -0.0931
      2 C2         -0.6892    4.3933    0.2457 c3        1 MOL   -0.0804
      3 C3         -0.9722    3.2583    1.2396 c3        1 MOL   -0.0804
      4 C4         -0.0965    2.0215    0.9880 c3        1 MOL   -0.0744
      5 C5         -0.4842    1.2732   -0.2978 c3        1 MOL   -0.0401
      6 C6          0.2919   -0.0135   -0.4255 ca        1 MOL   -0.0123
      7 C7         -0.3497   -1.2478   -0.2922 ca        1 MOL   -0.2170
      8 C8          0.3553   -2.4493   -0.4167 ca        1 MOL    0.1606
      9 C9          1.7599   -2.4281   -0.6564 ca        1 MOL   -0.1703
     10 C10         2.3948   -1.1698   -0.8220 ca        1 MOL    0.1606
     11 C11         1.6615    0.0172   -0.7015 ca        1 MOL   -0.2170
     12 O1          3.7584   -1.0948   -1.1092 oh        1 MOL   -0.5001
     13 C12         2.5845   -3.7120   -0.7894 c3        1 MOL    0.0438
     14 C13         3.8100   -3.6558    0.1061 c2        1 MOL   -0.1512
     15 C14         5.0317   -4.0871   -0.2730 c2        1 MOL   -0.1184
     16 C15         5.3039   -4.5733   -1.6805 c3        1 MOL   -0.0402
     17 C16         4.0338   -5.0588   -2.3821 c3        1 MOL   -0.0674
     18 C17         2.9349   -3.9891   -2.2769 c3        1 MOL   -0.0325
     19 C18         1.7022   -4.3710   -3.0887 c2        1 MOL   -0.0954
     20 C19         1.0447   -5.5221   -2.8645 c2        1 MOL   -0.2550
     21 C20         1.1849   -3.4431   -4.1572 c3        1 MOL   -0.0639
     22 C21         6.1751   -3.9884    0.6989 c3        1 MOL   -0.0549
     23 O2         -0.3916   -3.6256   -0.3007 oh        1 MOL   -0.5001
     24 H1         -1.1860    6.0127    1.6149 hc        1 MOL    0.0334
     25 H2         -2.5683    5.4364    0.5950 hc        1 MOL    0.0334
     26 H3         -1.2638    6.4486   -0.1332 hc        1 MOL    0.0334
     27 H4          0.3951    4.6376    0.2491 hc        1 MOL    0.0377
     28 H5         -0.9785    4.0830   -0.7805 hc        1 MOL    0.0377
     29 H6         -0.7616    3.6224    2.2700 hc        1 MOL    0.0412
     30 H7         -2.0471    2.9749    1.1969 hc        1 MOL    0.0412
     31 H8         -0.2200    1.3308    1.8518 hc        1 MOL    0.0452
     32 H9          0.9727    2.3228    0.9490 hc        1 MOL    0.0452
     33 H10        -0.2771    1.9025   -1.1890 hc        1 MOL    0.0512
     34 H11        -1.5766    1.0647   -0.2826 hc        1 MOL    0.0512
     35 H12        -1.4149   -1.2832   -0.0955 ha        1 MOL    0.1425
     36 H13         2.1635    0.9683   -0.8274 ha        1 MOL    0.1425
     37 H14         4.2312   -0.2067   -1.2325 ho        1 MOL    0.4235
     38 H15         2.0332   -4.5805   -0.3920 hc        1 MOL    0.0517
     39 H16         3.6673   -3.3103    1.1281 ha        1 MOL    0.1280
     40 H17         5.7548   -3.7400   -2.2625 hc        1 MOL    0.0472
     41 H18         6.0355   -5.4086   -1.6545 hc        1 MOL    0.0472
     42 H19         4.2643   -5.2615   -3.4508 hc        1 MOL    0.0432
     43 H20         3.7017   -6.0095   -1.9107 hc        1 MOL    0.0432
     44 H21         3.3645   -3.0602   -2.7131 hc        1 MOL    0.0767
     45 H22         0.1640   -5.7798   -3.4461 ha        1 MOL    0.1140
     46 H23         1.3674   -6.2174   -2.0975 ha        1 MOL    0.1140
     47 H24         1.2062   -3.9550   -5.1426 hc        1 MOL    0.0450
     48 H25         1.7954   -2.5186   -4.2300 hc        1 MOL    0.0450
     49 H26         0.1400   -3.1470   -3.9220 hc        1 MOL    0.0450
     50 H27         6.2988   -2.9351    1.0302 hc        1 MOL    0.0394
     51 H28         5.9717   -4.6280    1.5838 hc        1 MOL    0.0394
     52 H29         7.1259   -4.3222    0.2328 hc        1 MOL    0.0394
     53 H30        -0.0396   -4.5578   -0.4492 ho        1 MOL    0.4235
@<TRIPOS>BOND
     1    1    2 1
     2    2    3 1
     3    3    4 1
     4    4    5 1
     5   10   12 1
     6   13   14 1
     7   14   15 2
     8   15   16 1
     9   16   17 1
    10   17   18 1
    11   18   19 1
    12   19   20 2
    13   19   21 1
    14   15   22 1
    15    8   23 1
    16   18   13 1
    17    1   24 1
    18    1   25 1
    19    1   26 1
    20    2   27 1
    21    2   28 1
    22    3   29 1
    23    3   30 1
    24    4   31 1
    25    4   32 1
    26    5   33 1
    27    5   34 1
    28    7   35 1
    29   11   36 1
    30   12   37 1
    31   13   38 1
    32   14   39 1
    33   16   40 1
    34   16   41 1
    35   17   42 1
    36   17   43 1
    37   18   44 1
    38   20   45 1
    39   20   46 1
    40   21   47 1
    41   21   48 1
    42   21   49 1
    43   22   50 1
    44   22   51 1
    45   22   52 1
    46   23   53 1
    47    9   13 1
    48    9   10 1
    49    9    8 1
    50    7    8 1
    51    7    6 1
    52   10   11 1
    53   11    6 1
    54    6    5 1
@<TRIPOS>SUBSTRUCTURE
     1 MOL     1 RESIDUE           4 A     MOL     0 ROOT
