@<TRIPOS>MOLECULE
444913
 126 132 0 0 0
SMALL
GASTEIGER

@<TRIPOS>ATOM
      1 O          -2.9762    0.3326    8.2969 O.3     1  LIG1       -0.3401
      2 O          -3.5745   -0.1028    2.3051 O.3     1  LIG1       -0.3401
      3 O           0.0677    0.9866    9.1745 O.3     1  LIG1       -0.3401
      4 O          -7.9076    0.1123    1.7757 O.3     1  LIG1       -0.3401
      5 O          -6.0601   -0.0817    8.2879 O.3     1  LIG1       -0.3401
      6 O          -9.1152   -1.6871    5.4850 O.3     1  LIG1       -0.3401
      7 O          -1.7017   -0.8384   10.6630 O.3     1  LIG1       -0.3405
      8 O          -3.6155   -1.0584    4.4144 O.3     1  LIG1       -0.3405
      9 O          -2.3329    2.0601    8.8100 O.3     1  LIG1       -0.3405
     10 O          -6.6029   -1.3502    0.5227 O.3     1  LIG1       -0.3405
     11 O          -7.1475   -2.1504    8.6010 O.3     1  LIG1       -0.3405
     12 O          -9.7703    0.1741    4.2483 O.3     1  LIG1       -0.3405
     13 O          -3.1974    2.6343    6.2957 O.3     1  LIG1       -0.3864
     14 O          -0.6702    2.5022   12.4132 O.3     1  LIG1       -0.3864
     15 O          -5.3925    2.3101    2.0288 O.3     1  LIG1       -0.3864
     16 O          -4.2978   -2.4598    8.0824 O.3     1  LIG1       -0.3864
     17 O          -9.4551   -2.1782    0.7473 O.3     1  LIG1       -0.3864
     18 O          -8.5781    1.1436    6.6462 O.3     1  LIG1       -0.3864
     19 O          -3.4641    2.2911   11.4711 O.3     1  LIG1       -0.3841
     20 O          -3.2388    2.5031    3.6938 O.3     1  LIG1       -0.3841
     21 O          -0.9246   -2.2015    8.8873 O.3     1  LIG1       -0.3841
     22 O          -7.0788    2.3244    0.0942 O.3     1  LIG1       -0.3841
     23 O          -8.4552    1.2523    9.2715 O.3     1  LIG1       -0.3841
     24 O          -8.4966   -3.0658    2.9947 O.3     1  LIG1       -0.3841
     25 O          -2.2717   -3.3877    4.8358 O.3     1  LIG1       -0.3924
     26 O          -0.2679   -2.0314   12.8661 O.3     1  LIG1       -0.3924
     27 O          -3.8693   -2.9245    2.4002 O.3     1  LIG1       -0.3924
     28 O          -6.2996    2.9058    9.1371 O.3     1  LIG1       -0.3924
     29 O          -9.2399    2.9146    1.8473 O.3     1  LIG1       -0.3924
     30 O          -7.8587   -4.1232    5.5723 O.3     1  LIG1       -0.3924
     31 C          -3.4112    0.0013    6.7239 C.3     1  LIG1        0.1184
     32 C          -4.9703   -0.0952    1.9772 C.3     1  LIG1        0.1184
     33 C          -0.0307    0.9999   10.5966 C.3     1  LIG1        0.1184
     34 C          -9.3435    0.0533    1.7599 C.3     1  LIG1        0.1184
     35 C          -4.8439    0.0689    9.0580 C.3     1  LIG1        0.1184
     36 C          -8.2067   -1.2587    6.5048 C.3     1  LIG1        0.1184
     37 C          -2.9774    1.3169    5.7879 C.3     1  LIG1        0.1144
     38 C          -1.0329    2.0411   11.0958 C.3     1  LIG1        0.1144
     39 C          -5.2175    1.1802    1.1480 C.3     1  LIG1        0.1144
     40 C          -3.6577   -1.4527    8.8558 C.3     1  LIG1        0.1144
     41 C          -9.8677   -1.3832    1.8600 C.3     1  LIG1        0.1144
     42 C          -8.8710   -0.1129    7.2852 C.3     1  LIG1        0.1144
     43 C          -2.6624    0.1782   10.1573 C.3     1  LIG1        0.1884
     44 C          -3.1879    0.0614    3.6666 C.3     1  LIG1        0.1884
     45 C          -1.1463    0.7276    8.4723 C.3     1  LIG1        0.1884
     46 C          -7.3060   -0.1182    0.5004 C.3     1  LIG1        0.1884
     47 C          -7.1009   -0.7806    8.9816 C.3     1  LIG1        0.1884
     48 C          -8.9922   -1.0183    4.2298 C.3     1  LIG1        0.1884
     49 C          -2.4142    1.3865   11.1966 C.3     1  LIG1        0.1341
     50 C          -1.7683   -1.1409    8.4170 C.3     1  LIG1        0.1341
     51 C          -9.4926   -2.0420    3.1903 C.3     1  LIG1        0.1341
     52 C          -6.3878    1.0651    0.1613 C.3     1  LIG1        0.1341
     53 C          -8.4526   -0.0837    8.7581 C.3     1  LIG1        0.1341
     54 C          -3.6424    1.3102    4.3919 C.3     1  LIG1        0.1341
     55 C          -2.8917   -1.1879    5.6809 C.3     1  LIG1        0.1134
     56 C          -0.3706   -0.4071   11.0769 C.3     1  LIG1        0.1134
     57 C          -4.1131    1.8065    8.8079 C.3     1  LIG1        0.1134
     58 C          -9.8764    0.8446    2.9771 C.3     1  LIG1        0.1134
     59 C          -7.9189   -2.4589    7.4305 C.3     1  LIG1        0.1134
     60 C          -5.2972   -1.3431    1.1154 C.3     1  LIG1        0.1134
     61 C          -2.9774   -2.7126    5.8952 C.3     1  LIG1        0.0730
     62 C          -5.1724   -2.6685    1.8934 C.3     1  LIG1        0.0730
     63 C          -0.1728   -0.6331   12.5867 C.3     1  LIG1        0.0730
     64 C          -4.8883    3.0656    9.2525 C.3     1  LIG1        0.0730
     65 C          -7.1749   -3.6002    6.7089 C.3     1  LIG1        0.0730
     66 C          -9.2361    2.2348    3.1004 C.3     1  LIG1        0.0730
     67 H          -3.0357    3.2396    5.5427 H       1  LIG1        0.2100
     68 H           0.0787    3.1176   12.2970 H       1  LIG1        0.2100
     69 H          -5.8686    2.9710    1.4792 H       1  LIG1        0.2100
     70 H          -3.9677   -3.3168    8.4114 H       1  LIG1        0.2100
     71 H          -8.7014   -2.7146    1.0813 H       1  LIG1        0.2100
     72 H          -9.0625    1.1116    5.7967 H       1  LIG1        0.2100
     73 H          -3.0944    2.9521   12.0892 H       1  LIG1        0.2101
     74 H          -3.8857    2.5914    2.9572 H       1  LIG1        0.2101
     75 H          -1.1732   -2.3242    9.8240 H       1  LIG1        0.2101
     76 H          -7.8449    2.2794    0.7097 H       1  LIG1        0.2101
     77 H          -8.1162    1.8048    8.5270 H       1  LIG1        0.2101
     78 H          -8.3439   -3.4385    3.8957 H       1  LIG1        0.2101
     79 H          -2.8671   -3.4117    4.0589 H       1  LIG1        0.2095
     80 H          -0.1228   -2.1448   13.8217 H       1  LIG1        0.2095
     81 H          -3.5733   -2.0843    2.8038 H       1  LIG1        0.2095
     82 H          -6.5920    2.3364    9.8729 H       1  LIG1        0.2095
     83 H          -9.1425    3.8654    2.0473 H       1  LIG1        0.2095
     84 H          -7.4019   -4.9560    5.3476 H       1  LIG1        0.2095
     85 H          -4.4999   -0.0123    6.6956 H       1  LIG1        0.0651
     86 H          -5.5834   -0.0907    2.8861 H       1  LIG1        0.0651
     87 H           0.9698    1.2617   10.9613 H       1  LIG1        0.0651
     88 H          -9.7090    0.5289    0.8406 H       1  LIG1        0.0651
     89 H          -5.1769    0.1131   10.1037 H       1  LIG1        0.0651
     90 H          -7.2629   -0.9184    6.0589 H       1  LIG1        0.0651
     91 H          -1.8897    1.2724    5.6511 H       1  LIG1        0.0648
     92 H          -1.0478    2.9397   10.4718 H       1  LIG1        0.0648
     93 H          -4.3151    1.4227    0.5720 H       1  LIG1        0.0648
     94 H          -3.6359   -1.9342    9.8460 H       1  LIG1        0.0648
     95 H         -10.9625   -1.3302    1.8052 H       1  LIG1        0.0648
     96 H          -9.9641   -0.2038    7.2480 H       1  LIG1        0.0648
     97 H          -3.5648   -0.2022   10.6097 H       1  LIG1        0.0938
     98 H          -2.0916    0.0621    3.6067 H       1  LIG1        0.0938
     99 H          -0.9123    0.9596    7.4291 H       1  LIG1        0.0938
    100 H          -8.0701   -0.1891   -0.2821 H       1  LIG1        0.0938
    101 H          -6.9148   -0.7643   10.0612 H       1  LIG1        0.0938
    102 H          -7.9364   -0.7804    4.0534 H       1  LIG1        0.0938
    103 H          -2.3998    0.8622   12.1610 H       1  LIG1        0.0671
    104 H          -1.6061   -1.3184    7.3739 H       1  LIG1        0.0671
    105 H         -10.3803   -2.5620    3.5728 H       1  LIG1        0.0671
    106 H          -5.9638    0.8766   -0.8329 H       1  LIG1        0.0671
    107 H          -9.2022   -0.6478    9.3277 H       1  LIG1        0.0671
    108 H          -4.7296    1.3568    4.5186 H       1  LIG1        0.0671
    109 H          -1.8338   -0.9876    5.4529 H       1  LIG1        0.0647
    110 H           0.3283   -1.0954   10.5865 H       1  LIG1        0.0647
    111 H          -4.3616    1.8953    7.7566 H       1  LIG1        0.0647
    112 H         -10.9524    0.9909    2.8142 H       1  LIG1        0.0647
    113 H          -8.8816   -2.8638    7.7703 H       1  LIG1        0.0647
    114 H          -4.5686   -1.3863    0.2934 H       1  LIG1        0.0647
    115 H          -2.4928   -3.0703    6.7997 H       1  LIG1        0.0584
    116 H          -4.0067   -3.0739    5.8432 H       1  LIG1        0.0584
    117 H          -5.8767   -2.6854    2.7303 H       1  LIG1        0.0584
    118 H          -5.4453   -3.5067    1.2419 H       1  LIG1        0.0584
    119 H          -0.9284   -0.1365   13.1964 H       1  LIG1        0.0584
    120 H           0.8196   -0.2936   12.8998 H       1  LIG1        0.0584
    121 H          -4.6818    3.4469   10.2463 H       1  LIG1        0.0584
    122 H          -4.6014    3.8929    8.5912 H       1  LIG1        0.0584
    123 H          -7.0063   -4.4222    7.4145 H       1  LIG1        0.0584
    124 H          -6.1929   -3.2554    6.3784 H       1  LIG1        0.0584
    125 H          -9.7936    2.8307    3.8326 H       1  LIG1        0.0584
    126 H          -8.2038    2.1640    3.4607 H       1  LIG1        0.0584
@<TRIPOS>BOND
     1     7    43    1
     2     7    56    1
     3    43    49    1
     4    38    49    1
     5    33    38    1
     6    33    56    1
     7     8    44    1
     8     8    55    1
     9    44    54    1
    10    37    54    1
    11    31    37    1
    12    31    55    1
    13     9    45    1
    14     9    57    1
    15    45    50    1
    16    40    50    1
    17    35    40    1
    18    35    57    1
    19    10    46    1
    20    10    60    1
    21    46    52    1
    22    39    52    1
    23    32    39    1
    24    32    60    1
    25    11    47    1
    26    11    59    1
    27    47    53    1
    28    42    53    1
    29    36    42    1
    30    36    59    1
    31    12    48    1
    32    12    58    1
    33    48    51    1
    34    41    51    1
    35    34    41    1
    36    34    58    1
    37     1    31    1
    38    25    61    1
    39     2    44    1
    40     2    32    1
    41    27    62    1
    42     4    46    1
    43     4    34    1
    44    29    66    1
    45     6    48    1
    46     6    36    1
    47    30    65    1
    48     5    47    1
    49     5    35    1
    50    28    64    1
    51     3    45    1
    52     3    33    1
    53    26    63    1
    54     1    43    1
    55    39    15    1
    56    42    18    1
    57    49    19    1
    58    50    21    1
    59    51    24    1
    60    53    23    1
    61    55    61    1
    62    60    62    1
    63    37    13    1
    64    38    14    1
    65    40    16    1
    66    41    17    1
    67    52    22    1
    68    54    20    1
    69    56    63    1
    70    57    64    1
    71    58    66    1
    72    59    65    1
    73    13    67    1
    74    14    68    1
    75    15    69    1
    76    16    70    1
    77    17    71    1
    78    18    72    1
    79    19    73    1
    80    20    74    1
    81    21    75    1
    82    22    76    1
    83    23    77    1
    84    24    78    1
    85    25    79    1
    86    26    80    1
    87    27    81    1
    88    28    82    1
    89    29    83    1
    90    30    84    1
    91    31    85    1
    92    32    86    1
    93    33    87    1
    94    34    88    1
    95    35    89    1
    96    36    90    1
    97    37    91    1
    98    38    92    1
    99    39    93    1
   100    40    94    1
   101    41    95    1
   102    42    96    1
   103    43    97    1
   104    44    98    1
   105    45    99    1
   106    46   100    1
   107    47   101    1
   108    48   102    1
   109    49   103    1
   110    50   104    1
   111    51   105    1
   112    52   106    1
   113    53   107    1
   114    54   108    1
   115    55   109    1
   116    56   110    1
   117    57   111    1
   118    58   112    1
   119    59   113    1
   120    60   114    1
   121    61   115    1
   122    61   116    1
   123    62   117    1
   124    62   118    1
   125    63   119    1
   126    63   120    1
   127    64   121    1
   128    64   122    1
   129    65   123    1
   130    65   124    1
   131    66   125    1
   132    66   126    1
