@<TRIPOS>MOLECULE
702
 9 8 0 0 0
SMALL
GASTEIGER

@<TRIPOS>ATOM
      1 O           1.0710   -0.0533    0.0406 O.3     1  LIG1       -0.3953
      2 C           0.5906   -1.2477   -0.5556 C.3     1  LIG1        0.0414
      3 C           1.0928   -1.3242   -1.9815 C.3     1  LIG1       -0.0418
      4 H           0.7330   -0.0329    0.9520 H       1  LIG1        0.2094
      5 H          -0.5033   -1.2379   -0.5344 H       1  LIG1        0.0554
      6 H           0.9521   -2.1021    0.0244 H       1  LIG1        0.0554
      7 H           0.7512   -0.4578   -2.5581 H       1  LIG1        0.0252
      8 H           0.7398   -2.2359   -2.4723 H       1  LIG1        0.0252
      9 H           2.1877   -1.3107   -2.0065 H       1  LIG1        0.0252
@<TRIPOS>BOND
     1     1     2    1
     2     2     3    1
     3     1     4    1
     4     2     5    1
     5     2     6    1
     6     3     7    1
     7     3     8    1
     8     3     9    1
