@<TRIPOS>MOLECULE
10171019
 189 196 0 0 0
SMALL
GASTEIGER

@<TRIPOS>ATOM
      1 O           1.0372    0.2101   -7.9559 O.3     1  LIG1       -0.3401
      2 O           2.2826   -1.0045   -2.6648 O.3     1  LIG1       -0.3401
      3 O           1.3332   -1.4142  -11.7440 O.3     1  LIG1       -0.3401
      4 O           6.8563   -0.2398   -2.8923 O.3     1  LIG1       -0.3401
      5 O           4.0991   -0.7954  -11.8149 O.3     1  LIG1       -0.3401
      6 O           7.1076    3.4080   -4.9353 O.3     1  LIG1       -0.3401
      7 O           6.8295    0.2175   -9.0113 O.3     1  LIG1       -0.3401
      8 O           1.7766    0.4480   -4.5062 O.3     1  LIG1       -0.3405
      9 O          -0.3844   -1.0457   -9.3414 O.3     1  LIG1       -0.3405
     10 O           5.4148    0.5577   -1.2907 O.3     1  LIG1       -0.3405
     11 O           1.9934   -1.1544  -13.9933 O.3     1  LIG1       -0.3405
     12 O           8.2507    1.3892   -5.0243 O.3     1  LIG1       -0.3405
     13 O           6.2784   -1.5431  -11.1537 O.3     1  LIG1       -0.3405
     14 O           7.6548    2.3359   -8.1376 O.3     1  LIG1       -0.3405
     15 O           2.9391   -2.8284   -4.7121 O.3     1  LIG1       -0.3721
     16 O          -1.2578    1.9013  -10.2034 O.3     1  LIG1       -0.3721
     17 O           6.6041   -2.9444   -1.9622 O.3     1  LIG1       -0.3721
     18 O           1.5341   -4.2761  -12.0563 O.3     1  LIG1       -0.3721
     19 O           7.2437    3.2345   -1.9699 O.3     1  LIG1       -0.3721
     20 O           5.9018    0.8775  -13.1716 O.3     1  LIG1       -0.3721
     21 O           4.9091    2.3657   -8.6812 O.3     1  LIG1       -0.3721
     22 O           3.2408   -0.8070   -6.4972 O.3     1  LIG1       -0.3864
     23 O           2.1972    0.8413  -10.8663 O.3     1  LIG1       -0.3864
     24 O           3.5289   -2.7550   -1.1253 O.3     1  LIG1       -0.3864
     25 O           4.5553   -4.1182  -12.8704 O.3     1  LIG1       -0.3864
     26 O           8.5817    1.2821   -0.8407 O.3     1  LIG1       -0.3864
     27 O           7.5131    2.5413  -10.8724 O.3     1  LIG1       -0.3864
     28 O           4.0936    2.2612   -5.7175 O.3     1  LIG1       -0.3864
     29 O          -0.3584    2.5041   -6.6888 O.3     1  LIG1       -0.3803
     30 O          -1.9637   -2.3753  -12.4375 O.3     1  LIG1       -0.3803
     31 O           1.9262    1.7128   -1.6469 O.3     1  LIG1       -0.3803
     32 O           5.2687   -1.7657  -15.5838 O.3     1  LIG1       -0.3803
     33 O           8.5897   -2.2676   -4.7248 O.3     1  LIG1       -0.3803
     34 O           9.5080   -2.1701   -9.5572 O.3     1  LIG1       -0.3803
     35 O           7.7968    5.7361   -6.7225 O.3     1  LIG1       -0.3803
     36 C           0.8112   -0.3585   -6.6586 C.3     1  LIG1        0.1184
     37 C           3.6964   -0.7738   -2.5720 C.3     1  LIG1        0.1184
     38 C           0.2396   -0.4796  -11.6410 C.3     1  LIG1        0.1184
     39 C           8.2788    0.0181   -2.9397 C.3     1  LIG1        0.1184
     40 C           4.2141   -1.7060  -12.9148 C.3     1  LIG1        0.1184
     41 C           6.3096    3.2720   -6.1363 C.3     1  LIG1        0.1184
     42 C           7.7482    0.2053  -10.0863 C.3     1  LIG1        0.1184
     43 C           1.9222   -1.3901   -6.3832 C.3     1  LIG1        0.1147
     44 C           0.7918    0.8687  -11.1170 C.3     1  LIG1        0.1147
     45 C           4.3689   -2.0850   -2.1019 C.3     1  LIG1        0.1147
     46 C           3.6739   -3.0653  -12.4266 C.3     1  LIG1        0.1147
     47 C           8.7595    1.3256   -2.2584 C.3     1  LIG1        0.1147
     48 C           7.3407    1.1627  -11.2145 C.3     1  LIG1        0.1147
     49 C           5.4002    2.0201   -6.2402 C.3     1  LIG1        0.1147
     50 C           1.7958   -1.9934   -4.9706 C.3     1  LIG1        0.1372
     51 C           0.0566    1.3900   -9.8674 C.3     1  LIG1        0.1372
     52 C           5.7444   -1.9087   -1.4433 C.3     1  LIG1        0.1372
     53 C           2.2459   -3.3618  -12.9182 C.3     1  LIG1        0.1372
     54 C           8.1599    2.6029   -2.8904 C.3     1  LIG1        0.1372
     55 C           5.9060    0.8953  -11.7226 C.3     1  LIG1        0.1372
     56 C           5.3852    1.4712   -7.6613 C.3     1  LIG1        0.1372
     57 C           1.6217   -0.8487   -3.9180 C.3     1  LIG1        0.1887
     58 C          -0.1243    0.2626   -8.7972 C.3     1  LIG1        0.1887
     59 C           6.3243   -0.4921   -1.5972 C.3     1  LIG1        0.1887
     60 C           1.4420   -2.0495  -13.0266 C.3     1  LIG1        0.1887
     61 C           7.4340    2.2293   -4.2068 C.3     1  LIG1        0.1887
     62 C           5.3441   -0.4520  -11.1816 C.3     1  LIG1        0.1887
     63 C           6.8642    1.1655   -7.9630 C.3     1  LIG1        0.1887
     64 C           0.7453    0.6855   -5.4996 C.3     1  LIG1        0.1136
     65 C          -0.8666   -0.9984  -10.6933 C.3     1  LIG1        0.1136
     66 C           4.0104    0.3029   -1.5029 C.3     1  LIG1        0.1136
     67 C           3.4278   -1.1346  -14.1122 C.3     1  LIG1        0.1136
     68 C           8.6778    0.1517   -4.4224 C.3     1  LIG1        0.1136
     69 C           7.6178   -1.2066  -10.7216 C.3     1  LIG1        0.1136
     70 C           7.1589    3.5085   -7.4358 C.3     1  LIG1        0.1136
     71 C           0.7972    2.1544   -5.9229 C.3     1  LIG1        0.0761
     72 C          -1.4262   -2.3647  -11.1078 C.3     1  LIG1        0.0761
     73 C           3.3466    1.6644   -1.8026 C.3     1  LIG1        0.0761
     74 C           3.8490   -1.8109  -15.4346 C.3     1  LIG1        0.0761
     75 C           8.1763   -1.0192   -5.2746 C.3     1  LIG1        0.0761
     76 C           8.1050   -2.3163   -9.7811 C.3     1  LIG1        0.0761
     77 C           8.3100    4.5024   -7.2313 C.3     1  LIG1        0.0761
     78 C           2.8850   -4.0847   -5.3813 C.3     1  LIG1        0.0371
     79 C          -1.2342    3.1251  -10.9249 C.3     1  LIG1        0.0371
     80 C           7.7282   -3.2329   -1.1449 C.3     1  LIG1        0.0371
     81 C           2.0799   -5.5858  -12.0302 C.3     1  LIG1        0.0371
     82 C           7.8644    4.2248   -1.1531 C.3     1  LIG1        0.0371
     83 C           6.1416    2.1598  -13.7412 C.3     1  LIG1        0.0371
     84 C           3.5168    2.6131   -8.6183 C.3     1  LIG1        0.0371
     85 C          -0.2878    3.8541   -7.1329 C.3     1  LIG1        0.0366
     86 C          -3.1528   -1.6091  -12.5873 C.3     1  LIG1        0.0366
     87 C           1.4910    1.4696   -0.3179 C.3     1  LIG1        0.0366
     88 C           5.7277   -2.5081  -16.7017 C.3     1  LIG1        0.0366
     89 C           7.7741   -3.3296   -5.2062 C.3     1  LIG1        0.0366
     90 C          10.0314   -3.2223   -8.7588 C.3     1  LIG1        0.0366
     91 C           8.8248    6.6757   -6.4543 C.3     1  LIG1        0.0366
     92 H           3.8407   -1.4785   -6.1182 H       1  LIG1        0.2100
     93 H           2.5355   -0.0035  -11.2425 H       1  LIG1        0.2100
     94 H           3.8476   -3.6724   -1.0745 H       1  LIG1        0.2100
     95 H           5.4314   -3.8992  -12.4987 H       1  LIG1        0.2100
     96 H           7.7043    1.6973   -0.6848 H       1  LIG1        0.2100
     97 H           7.2394    2.6415   -9.9392 H       1  LIG1        0.2100
     98 H           3.6300    1.3963   -5.7207 H       1  LIG1        0.2100
     99 H          -0.1418   -0.9060   -6.6645 H       1  LIG1        0.0651
    100 H           4.1214   -0.4717   -3.5377 H       1  LIG1        0.0651
    101 H          -0.2043   -0.3026  -12.6298 H       1  LIG1        0.0651
    102 H           8.7927   -0.8402   -2.4961 H       1  LIG1        0.0651
    103 H           5.2655   -1.7943  -13.2049 H       1  LIG1        0.0651
    104 H           5.6418    4.1422   -6.0680 H       1  LIG1        0.0651
    105 H           8.7629    0.4045   -9.7257 H       1  LIG1        0.0651
    106 H           1.8843   -2.1722   -7.1492 H       1  LIG1        0.0648
    107 H           0.6713    1.5916  -11.9302 H       1  LIG1        0.0648
    108 H           4.4391   -2.7798   -2.9406 H       1  LIG1        0.0648
    109 H           3.6883   -3.1110  -11.3302 H       1  LIG1        0.0648
    110 H           9.8473    1.3736   -2.4061 H       1  LIG1        0.0648
    111 H           8.0455    1.0038  -12.0407 H       1  LIG1        0.0648
    112 H           5.7688    1.1979   -5.6260 H       1  LIG1        0.0648
    113 H           0.8930   -2.6162   -4.9085 H       1  LIG1        0.0674
    114 H           0.6296    2.2030   -9.4080 H       1  LIG1        0.0674
    115 H           5.6190   -2.0891   -0.3659 H       1  LIG1        0.0674
    116 H           2.2848   -3.8238  -13.9124 H       1  LIG1        0.0674
    117 H           8.9704    3.3033   -3.1334 H       1  LIG1        0.0674
    118 H           5.2138    1.6885  -11.4129 H       1  LIG1        0.0674
    119 H           4.7956    0.5529   -7.7214 H       1  LIG1        0.0674
    120 H           0.5666   -0.9028   -3.6176 H       1  LIG1        0.0938
    121 H          -0.9988    0.5172   -8.1860 H       1  LIG1        0.0938
    122 H           7.1199   -0.4312   -0.8545 H       1  LIG1        0.0938
    123 H           0.4357   -2.3104  -13.3704 H       1  LIG1        0.0938
    124 H           6.4893    1.7580   -3.9308 H       1  LIG1        0.0938
    125 H           5.0238   -0.2947  -10.1493 H       1  LIG1        0.0938
    126 H           7.3054    0.6214   -7.1347 H       1  LIG1        0.0938
    127 H          -0.2244    0.5466   -5.0001 H       1  LIG1        0.0647
    128 H          -1.7201   -0.3145  -10.7170 H       1  LIG1        0.0647
    129 H           3.6299   -0.0544   -0.5400 H       1  LIG1        0.0647
    130 H           3.6879   -0.0732  -14.2016 H       1  LIG1        0.0647
    131 H           9.7745    0.1538   -4.4762 H       1  LIG1        0.0647
    132 H           8.2492   -1.2432  -11.6192 H       1  LIG1        0.0647
    133 H           6.4846    4.0025   -8.1478 H       1  LIG1        0.0647
    134 H           1.6974    2.3466   -6.5059 H       1  LIG1        0.0586
    135 H           0.8419    2.7909   -5.0306 H       1  LIG1        0.0586
    136 H          -2.1983   -2.6925  -10.4005 H       1  LIG1        0.0586
    137 H          -0.6430   -3.1266  -11.0579 H       1  LIG1        0.0586
    138 H           3.7910    2.4503   -1.1782 H       1  LIG1        0.0586
    139 H           3.5712    1.9555   -2.8356 H       1  LIG1        0.0586
    140 H           3.5060   -2.8495  -15.4659 H       1  LIG1        0.0586
    141 H           3.3801   -1.2915  -16.2783 H       1  LIG1        0.0586
    142 H           8.5908   -0.9405   -6.2866 H       1  LIG1        0.0586
    143 H           7.0839   -0.9702   -5.3677 H       1  LIG1        0.0586
    144 H           7.5658   -2.2887   -8.8267 H       1  LIG1        0.0586
    145 H           7.9057   -3.2934  -10.2395 H       1  LIG1        0.0586
    146 H           8.8105    4.6880   -8.1895 H       1  LIG1        0.0586
    147 H           9.0572    4.0838   -6.5474 H       1  LIG1        0.0586
    148 H           1.8932   -4.5416   -5.3045 H       1  LIG1        0.0524
    149 H           3.6097   -4.7529   -4.9076 H       1  LIG1        0.0524
    150 H           3.1665   -3.9642   -6.4311 H       1  LIG1        0.0524
    151 H          -0.4540    3.7995  -10.5602 H       1  LIG1        0.0524
    152 H          -2.2047    3.6127  -10.7945 H       1  LIG1        0.0524
    153 H          -1.0996    2.9275  -11.9917 H       1  LIG1        0.0524
    154 H           8.3725   -3.9285   -1.6903 H       1  LIG1        0.0524
    155 H           7.4032   -3.7116   -0.2175 H       1  LIG1        0.0524
    156 H           8.3094   -2.3377   -0.9153 H       1  LIG1        0.0524
    157 H           2.2678   -5.9600  -13.0408 H       1  LIG1        0.0524
    158 H           1.3508   -6.2441  -11.5492 H       1  LIG1        0.0524
    159 H           2.9945   -5.6073  -11.4324 H       1  LIG1        0.0524
    160 H           7.0851    4.7157   -0.5639 H       1  LIG1        0.0524
    161 H           8.3686    4.9794   -1.7635 H       1  LIG1        0.0524
    162 H           8.5793    3.7713   -0.4604 H       1  LIG1        0.0524
    163 H           7.2118    2.3836  -13.7323 H       1  LIG1        0.0524
    164 H           5.8095    2.1346  -14.7825 H       1  LIG1        0.0524
    165 H           5.5861    2.9452  -13.2200 H       1  LIG1        0.0524
    166 H           3.2009    3.0421   -9.5724 H       1  LIG1        0.0524
    167 H           3.3002    3.3466   -7.8390 H       1  LIG1        0.0524
    168 H           2.9665    1.6889   -8.4463 H       1  LIG1        0.0524
    169 H          -0.3342    4.5360   -6.2799 H       1  LIG1        0.0524
    170 H           0.6291    4.0288   -7.7054 H       1  LIG1        0.0524
    171 H          -1.1435    4.0456   -7.7854 H       1  LIG1        0.0524
    172 H          -3.5668   -1.8102  -13.5793 H       1  LIG1        0.0524
    173 H          -2.9348   -0.5387  -12.5309 H       1  LIG1        0.0524
    174 H          -3.8971   -1.8853  -11.8349 H       1  LIG1        0.0524
    175 H           1.5414    0.4017   -0.0884 H       1  LIG1        0.0524
    176 H           2.0811    2.0422    0.4043 H       1  LIG1        0.0524
    177 H           0.4456    1.7789   -0.2373 H       1  LIG1        0.0524
    178 H           5.3530   -2.0687  -17.6297 H       1  LIG1        0.0524
    179 H           6.8208   -2.4698  -16.7107 H       1  LIG1        0.0524
    180 H           5.4196   -3.5551  -16.6234 H       1  LIG1        0.0524
    181 H           7.7840   -3.3599   -6.2998 H       1  LIG1        0.0524
    182 H           6.7462   -3.2091   -4.8502 H       1  LIG1        0.0524
    183 H           8.1704   -4.2725   -4.8224 H       1  LIG1        0.0524
    184 H          11.1155   -3.0977   -8.6932 H       1  LIG1        0.0524
    185 H           9.8193   -4.1965   -9.2103 H       1  LIG1        0.0524
    186 H           9.6150   -3.1747   -7.7500 H       1  LIG1        0.0524
    187 H           9.2599    7.0328   -7.3919 H       1  LIG1        0.0524
    188 H           9.5997    6.2394   -5.8170 H       1  LIG1        0.0524
    189 H           8.3819    7.5257   -5.9278 H       1  LIG1        0.0524
@<TRIPOS>BOND
     1     8    57    1
     2     8    64    1
     3    50    57    1
     4    43    50    1
     5    36    43    1
     6    36    64    1
     7     9    58    1
     8     9    65    1
     9    51    58    1
    10    44    51    1
    11    38    44    1
    12    38    65    1
    13    10    59    1
    14    10    66    1
    15    52    59    1
    16    45    52    1
    17    37    45    1
    18    37    66    1
    19    11    60    1
    20    11    67    1
    21    53    60    1
    22    46    53    1
    23    40    46    1
    24    40    67    1
    25    12    61    1
    26    12    68    1
    27    54    61    1
    28    47    54    1
    29    39    47    1
    30    39    68    1
    31    13    62    1
    32    13    69    1
    33    55    62    1
    34    48    55    1
    35    42    48    1
    36    42    69    1
    37    14    63    1
    38    14    70    1
    39    56    63    1
    40    49    56    1
    41    41    49    1
    42    41    70    1
    43     1    36    1
    44    29    71    1
    45    29    85    1
    46    50    15    1
    47    15    78    1
    48     2    57    1
    49     2    37    1
    50    31    73    1
    51    31    87    1
    52    52    17    1
    53    17    80    1
    54     4    59    1
    55     4    39    1
    56    68    75    1
    57    33    75    1
    58    33    89    1
    59    19    82    1
    60     6    61    1
    61     6    41    1
    62    70    77    1
    63    35    77    1
    64    35    91    1
    65    56    21    1
    66    21    84    1
    67     7    63    1
    68     7    42    1
    69    69    76    1
    70    34    76    1
    71    34    90    1
    72    55    20    1
    73    20    83    1
    74     5    62    1
    75     5    40    1
    76    67    74    1
    77    32    74    1
    78    32    88    1
    79    53    18    1
    80    18    81    1
    81     3    60    1
    82     3    38    1
    83    65    72    1
    84    30    72    1
    85    30    86    1
    86    51    16    1
    87    16    79    1
    88    49    28    1
    89    47    26    1
    90     1    58    1
    91    43    22    1
    92    44    23    1
    93    45    24    1
    94    46    25    1
    95    48    27    1
    96    54    19    1
    97    64    71    1
    98    66    73    1
    99    22    92    1
   100    23    93    1
   101    24    94    1
   102    25    95    1
   103    26    96    1
   104    27    97    1
   105    28    98    1
   106    36    99    1
   107    37   100    1
   108    38   101    1
   109    39   102    1
   110    40   103    1
   111    41   104    1
   112    42   105    1
   113    43   106    1
   114    44   107    1
   115    45   108    1
   116    46   109    1
   117    47   110    1
   118    48   111    1
   119    49   112    1
   120    50   113    1
   121    51   114    1
   122    52   115    1
   123    53   116    1
   124    54   117    1
   125    55   118    1
   126    56   119    1
   127    57   120    1
   128    58   121    1
   129    59   122    1
   130    60   123    1
   131    61   124    1
   132    62   125    1
   133    63   126    1
   134    64   127    1
   135    65   128    1
   136    66   129    1
   137    67   130    1
   138    68   131    1
   139    69   132    1
   140    70   133    1
   141    71   134    1
   142    71   135    1
   143    72   136    1
   144    72   137    1
   145    73   138    1
   146    73   139    1
   147    74   140    1
   148    74   141    1
   149    75   142    1
   150    75   143    1
   151    76   144    1
   152    76   145    1
   153    77   146    1
   154    77   147    1
   155    78   148    1
   156    78   149    1
   157    78   150    1
   158    79   151    1
   159    79   152    1
   160    79   153    1
   161    80   154    1
   162    80   155    1
   163    80   156    1
   164    81   157    1
   165    81   158    1
   166    81   159    1
   167    82   160    1
   168    82   161    1
   169    82   162    1
   170    83   163    1
   171    83   164    1
   172    83   165    1
   173    84   166    1
   174    84   167    1
   175    84   168    1
   176    85   169    1
   177    85   170    1
   178    85   171    1
   179    86   172    1
   180    86   173    1
   181    86   174    1
   182    87   175    1
   183    87   176    1
   184    87   177    1
   185    88   178    1
   186    88   179    1
   187    88   180    1
   188    89   181    1
   189    89   182    1
   190    89   183    1
   191    90   184    1
   192    90   185    1
   193    90   186    1
   194    91   187    1
   195    91   188    1
   196    91   189    1
