@<TRIPOS>MOLECULE
5287407
 168 176 0 0 0
SMALL
GASTEIGER

@<TRIPOS>ATOM
      1 O          -0.9893   -1.5501    9.7716 O.3     1  LIG1       -0.3401
      2 O          -1.8565   -0.4238    4.3897 O.3     1  LIG1       -0.3401
      3 O          -6.1493   -0.9449    2.6699 O.3     1  LIG1       -0.3401
      4 O           0.9874   -1.0258   14.1007 O.3     1  LIG1       -0.3401
      5 O          -9.2807   -0.1666    5.2860 O.3     1  LIG1       -0.3401
      6 O          -2.6660    1.4050   16.1995 O.3     1  LIG1       -0.3401
      7 O          -8.1104    1.1713    9.8467 O.3     1  LIG1       -0.3401
      8 O          -6.1872   -0.0501   13.7547 O.3     1  LIG1       -0.3401
      9 O          -1.8086   -1.7826    6.3184 O.3     1  LIG1       -0.3405
     10 O           0.7541   -0.6137   10.9917 O.3     1  LIG1       -0.3405
     11 O          -3.8660   -0.9529    2.1421 O.3     1  LIG1       -0.3405
     12 O          -9.0547   -0.0822    2.9215 O.3     1  LIG1       -0.3405
     13 O           0.8573    0.7522   15.4979 O.3     1  LIG1       -0.3405
     14 O          -9.6090    0.7974    8.0842 O.3     1  LIG1       -0.3405
     15 O          -4.1516   -0.3367   16.8455 O.3     1  LIG1       -0.3405
     16 O          -7.0381    1.6242   12.4050 O.3     1  LIG1       -0.3405
     17 O          -1.0879    1.2250    8.9653 O.3     1  LIG1       -0.3864
     18 O          -4.2128   -0.4924    6.3452 O.3     1  LIG1       -0.3864
     19 O           0.6278   -3.6672   13.8164 O.3     1  LIG1       -0.3864
     20 O          -6.9436   -3.7217    3.2807 O.3     1  LIG1       -0.3864
     21 O          -1.0117   -1.6975   15.3979 O.3     1  LIG1       -0.3864
     22 O          -6.6559    2.0701    5.4124 O.3     1  LIG1       -0.3864
     23 O          -6.7755    2.2626   15.1673 O.3     1  LIG1       -0.3864
     24 O          -7.8492   -1.8375   12.0077 O.3     1  LIG1       -0.3864
     25 O           0.0491    1.2400    6.5584 O.3     1  LIG1       -0.3841
     26 O          -0.6106   -4.0664   11.2869 O.3     1  LIG1       -0.3841
     27 O          -3.5578   -2.7827    4.5204 O.3     1  LIG1       -0.3841
     28 O          -8.1299   -2.7319    5.3198 O.3     1  LIG1       -0.3841
     29 O          -1.4079   -0.1934   12.6723 O.3     1  LIG1       -0.3841
     30 O          -5.8725    1.2408    8.0138 O.3     1  LIG1       -0.3841
     31 O          -4.6055    3.3561   16.9325 O.3     1  LIG1       -0.3841
     32 O          -5.1536   -1.4832   11.5164 O.3     1  LIG1       -0.3841
     33 O          -0.5354   -4.2780    8.6342 O.3     1  LIG1       -0.3924
     34 O          -3.9014    2.6908    2.8097 O.3     1  LIG1       -0.3924
     35 O           4.3375   -1.2841   11.5772 O.3     1  LIG1       -0.3924
     36 O          -8.7889   -1.4610   -0.4659 O.3     1  LIG1       -0.3924
     37 O          -1.1179    3.4431   17.0980 O.3     1  LIG1       -0.3924
     38 O         -11.6002    2.2205    5.3361 O.3     1  LIG1       -0.3924
     39 O          -6.3327   -2.5205   14.8418 O.3     1  LIG1       -0.3924
     40 O         -10.6917    1.8594   12.0791 O.3     1  LIG1       -0.3924
     41 C          -0.6605   -1.1334    8.4303 C.3     1  LIG1        0.1184
     42 C          -3.1286    0.2231    4.2370 C.3     1  LIG1        0.1184
     43 C           1.7302   -1.5967   13.0187 C.3     1  LIG1        0.1184
     44 C          -7.2425   -1.6254    2.0115 C.3     1  LIG1        0.1184
     45 C          -1.5451    0.5056   16.3127 C.3     1  LIG1        0.1184
     46 C          -8.8927    1.1550    5.7331 C.3     1  LIG1        0.1184
     47 C          -5.2418    0.3593   14.7476 C.3     1  LIG1        0.1184
     48 C          -8.4407    0.2609   10.9049 C.3     1  LIG1        0.1184
     49 C          -1.4605    0.1394    8.0932 C.3     1  LIG1        0.1144
     50 C          -4.3188   -0.4607    4.9171 C.3     1  LIG1        0.1144
     51 C           1.0390   -2.9344   12.6502 C.3     1  LIG1        0.1144
     52 C          -7.8880   -2.7261    2.8835 C.3     1  LIG1        0.1144
     53 C          -1.6110   -0.4263   15.0987 C.3     1  LIG1        0.1144
     54 C          -7.4292    1.1630    6.2129 C.3     1  LIG1        0.1144
     55 C          -5.4155    1.8142   15.2405 C.3     1  LIG1        0.1144
     56 C          -7.4341   -0.8990   11.0109 C.3     1  LIG1        0.1144
     57 C          -1.2737   -0.6296    5.6744 C.3     1  LIG1        0.1884
     58 C           0.1813   -1.8516   10.5444 C.3     1  LIG1        0.1884
     59 C          -4.9210   -1.6657    2.8137 C.3     1  LIG1        0.1884
     60 C           0.5417    0.3277   14.1596 C.3     1  LIG1        0.1884
     61 C          -8.5461   -0.6183    4.1338 C.3     1  LIG1        0.1884
     62 C          -3.7923    1.0342   17.0207 C.3     1  LIG1        0.1884
     63 C          -8.2553    0.6941    8.5152 C.3     1  LIG1        0.1884
     64 C          -6.0300    0.6212   12.5045 C.3     1  LIG1        0.1884
     65 C          -1.2388    0.5823    6.6346 C.3     1  LIG1        0.1341
     66 C          -0.1828   -2.7617   11.7359 C.3     1  LIG1        0.1341
     67 C          -4.6157   -1.8447    4.3207 C.3     1  LIG1        0.1341
     68 C          -8.6347   -2.1523    4.1039 C.3     1  LIG1        0.1341
     69 C          -0.9751    0.3375   13.9189 C.3     1  LIG1        0.1341
     70 C          -7.2547    1.5125    7.6783 C.3     1  LIG1        0.1341
     71 C          -4.9587    1.9853   16.7011 C.3     1  LIG1        0.1341
     72 C          -6.0310   -0.3657   11.3152 C.3     1  LIG1        0.1341
     73 C          -0.9390   -2.2466    7.3722 C.3     1  LIG1        0.1134
     74 C          -3.4355    0.2957    2.7139 C.3     1  LIG1        0.1134
     75 C           1.9669   -0.7631   11.7431 C.3     1  LIG1        0.1134
     76 C          -8.3255   -0.5285    1.7428 C.3     1  LIG1        0.1134
     77 C          -0.1875    1.2902   16.3373 C.3     1  LIG1        0.1134
     78 C          -9.8235    1.5802    6.8943 C.3     1  LIG1        0.1134
     79 C          -5.2476   -0.6023   15.9529 C.3     1  LIG1        0.1134
     80 C          -8.3678    1.0784   12.2167 C.3     1  LIG1        0.1134
     81 C          -1.5313   -3.5425    7.9334 C.3     1  LIG1        0.0730
     82 C          -4.4024    1.4378    2.3489 C.3     1  LIG1        0.0730
     83 C           3.1108   -1.3114   10.8645 C.3     1  LIG1        0.0730
     84 C          -9.3852   -0.9682    0.7213 C.3     1  LIG1        0.0730
     85 C          -0.2814    2.8145   16.1371 C.3     1  LIG1        0.0730
     86 C         -11.3053    1.4723    6.5097 C.3     1  LIG1        0.0730
     87 C          -5.1657   -2.0806   15.5274 C.3     1  LIG1        0.0730
     88 C          -9.3378    2.2680   12.2219 C.3     1  LIG1        0.0730
     89 H          -0.2622    1.5853    8.5822 H       1  LIG1        0.2100
     90 H          -4.2174    0.4357    6.6474 H       1  LIG1        0.2100
     91 H           0.0397   -3.0698   14.3272 H       1  LIG1        0.2100
     92 H          -7.0995   -3.8767    4.2382 H       1  LIG1        0.2100
     93 H          -0.0641   -1.5234   15.5881 H       1  LIG1        0.2100
     94 H          -5.9037    2.3686    5.9612 H       1  LIG1        0.2100
     95 H          -7.0769    2.0908   14.2520 H       1  LIG1        0.2100
     96 H          -7.0986   -2.4585   12.1200 H       1  LIG1        0.2100
     97 H           0.1544    1.5416    5.6348 H       1  LIG1        0.2101
     98 H          -0.6783   -4.5996   12.1074 H       1  LIG1        0.2101
     99 H          -3.0386   -2.4751    5.2920 H       1  LIG1        0.2101
    100 H          -8.7070   -2.3840    6.0280 H       1  LIG1        0.2101
    101 H          -0.8449    0.1717   11.9567 H       1  LIG1        0.2101
    102 H          -5.7697    0.2721    8.1007 H       1  LIG1        0.2101
    103 H          -5.3957    3.8735   16.6800 H       1  LIG1        0.2101
    104 H          -4.2401   -1.1477   11.6010 H       1  LIG1        0.2101
    105 H          -0.8160   -4.3197    9.5769 H       1  LIG1        0.2095
    106 H          -4.5129    3.3714    2.4735 H       1  LIG1        0.2095
    107 H           5.0296   -1.6263   10.9827 H       1  LIG1        0.2095
    108 H          -9.5084   -1.6572   -1.0926 H       1  LIG1        0.2095
    109 H          -2.0422    3.1949   16.8861 H       1  LIG1        0.2095
    110 H         -11.3652    1.6613    4.5722 H       1  LIG1        0.2095
    111 H          -6.5711   -1.8227   14.1979 H       1  LIG1        0.2095
    112 H         -10.8601    1.7483   11.1292 H       1  LIG1        0.2095
    113 H           0.4065   -0.8691    8.3837 H       1  LIG1        0.0651
    114 H          -3.0137    1.2385    4.6247 H       1  LIG1        0.0651
    115 H           2.6971   -1.8394   13.4749 H       1  LIG1        0.0651
    116 H          -6.8520   -2.0388    1.0752 H       1  LIG1        0.0651
    117 H          -1.6121   -0.0745   17.2427 H       1  LIG1        0.0651
    118 H          -9.0255    1.8432    4.8892 H       1  LIG1        0.0651
    119 H          -4.2526    0.2983   14.2879 H       1  LIG1        0.0651
    120 H          -9.4569   -0.1254   10.7632 H       1  LIG1        0.0651
    121 H          -2.5223   -0.0500    8.2825 H       1  LIG1        0.0648
    122 H          -5.1953    0.1599    4.7301 H       1  LIG1        0.0648
    123 H           1.7611   -3.5824   12.1406 H       1  LIG1        0.0648
    124 H          -8.6223   -3.2544    2.2641 H       1  LIG1        0.0648
    125 H          -2.6302   -0.6761   14.8306 H       1  LIG1        0.0648
    126 H          -6.9730    0.1776    6.0840 H       1  LIG1        0.0648
    127 H          -4.8476    2.4864   14.5853 H       1  LIG1        0.0648
    128 H          -7.3907   -1.4728   10.0806 H       1  LIG1        0.0648
    129 H          -0.2346   -0.8740    5.4174 H       1  LIG1        0.0938
    130 H           0.8823   -2.3882    9.8952 H       1  LIG1        0.0938
    131 H          -4.9701   -2.6395    2.3168 H       1  LIG1        0.0938
    132 H           1.0723    0.9796   13.4668 H       1  LIG1        0.0938
    133 H          -7.5146   -0.3092    4.2590 H       1  LIG1        0.0938
    134 H          -3.4835    1.1756   18.0626 H       1  LIG1        0.0938
    135 H          -7.9778   -0.3616    8.4545 H       1  LIG1        0.0938
    136 H          -5.0614    1.1358   12.4792 H       1  LIG1        0.0938
    137 H          -1.9645    1.3591    6.3878 H       1  LIG1        0.0671
    138 H          -1.0351   -2.3778   12.2962 H       1  LIG1        0.0671
    139 H          -5.4839   -2.2539    4.8440 H       1  LIG1        0.0671
    140 H          -9.6898   -2.4467    4.0327 H       1  LIG1        0.0671
    141 H          -1.3428    1.3685   13.9143 H       1  LIG1        0.0671
    142 H          -7.3918    2.5878    7.8437 H       1  LIG1        0.0671
    143 H          -5.7949    1.7601   17.3752 H       1  LIG1        0.0671
    144 H          -5.6766    0.1712   10.4293 H       1  LIG1        0.0671
    145 H           0.0235   -2.5064    6.9101 H       1  LIG1        0.0647
    146 H          -2.4861    0.5242    2.2117 H       1  LIG1        0.0647
    147 H           2.2744    0.2454   12.0340 H       1  LIG1        0.0647
    148 H          -7.8129    0.3580    1.3485 H       1  LIG1        0.0647
    149 H           0.1934    1.1603   17.3596 H       1  LIG1        0.0647
    150 H          -9.6211    2.6318    7.1379 H       1  LIG1        0.0647
    151 H          -6.1881   -0.4773   16.5060 H       1  LIG1        0.0647
    152 H          -8.6185    0.4347   13.0697 H       1  LIG1        0.0647
    153 H          -1.8896   -4.1745    7.1132 H       1  LIG1        0.0584
    154 H          -2.3963   -3.3515    8.5791 H       1  LIG1        0.0584
    155 H          -4.5259    1.4850    1.2612 H       1  LIG1        0.0584
    156 H          -5.3953    1.3042    2.7819 H       1  LIG1        0.0584
    157 H           3.2103   -0.6983    9.9621 H       1  LIG1        0.0584
    158 H           2.9301   -2.3399   10.5409 H       1  LIG1        0.0584
    159 H         -10.0360   -1.7432    1.1409 H       1  LIG1        0.0584
    160 H         -10.0297   -0.1184    0.4689 H       1  LIG1        0.0584
    161 H           0.7187    3.2530   16.2337 H       1  LIG1        0.0584
    162 H          -0.6312    3.0775   15.1346 H       1  LIG1        0.0584
    163 H         -11.9237    1.8644    7.3244 H       1  LIG1        0.0584
    164 H         -11.6146    0.4314    6.3634 H       1  LIG1        0.0584
    165 H          -4.2974   -2.2587   14.8842 H       1  LIG1        0.0584
    166 H          -5.0349   -2.7174   16.4091 H       1  LIG1        0.0584
    167 H          -9.2486    2.8025   13.1738 H       1  LIG1        0.0584
    168 H          -9.0929    2.9981   11.4423 H       1  LIG1        0.0584
@<TRIPOS>BOND
     1     9    57    1
     2     9    73    1
     3    57    65    1
     4    49    65    1
     5    41    49    1
     6    41    73    1
     7    10    58    1
     8    10    75    1
     9    58    66    1
    10    51    66    1
    11    43    51    1
    12    43    75    1
    13    11    59    1
    14    11    74    1
    15    59    67    1
    16    50    67    1
    17    42    50    1
    18    42    74    1
    19    12    61    1
    20    12    76    1
    21    61    68    1
    22    52    68    1
    23    44    52    1
    24    44    76    1
    25    13    60    1
    26    13    77    1
    27    60    69    1
    28    53    69    1
    29    45    53    1
    30    45    77    1
    31    14    63    1
    32    14    78    1
    33    63    70    1
    34    54    70    1
    35    46    54    1
    36    46    78    1
    37    15    62    1
    38    15    79    1
    39    62    71    1
    40    55    71    1
    41    47    55    1
    42    47    79    1
    43    16    64    1
    44    16    80    1
    45    64    72    1
    46    56    72    1
    47    48    56    1
    48    48    80    1
    49     1    41    1
    50    33    81    1
    51     2    57    1
    52     2    42    1
    53    34    82    1
    54     3    59    1
    55     3    44    1
    56    36    84    1
    57     5    61    1
    58     5    46    1
    59    38    86    1
    60     7    63    1
    61     7    48    1
    62    40    88    1
    63     8    64    1
    64     8    47    1
    65    39    87    1
    66     6    62    1
    67     6    45    1
    68    37    85    1
    69     4    60    1
    70     4    43    1
    71    35    83    1
    72     1    58    1
    73    50    18    1
    74    54    22    1
    75    66    26    1
    76    68    28    1
    77    69    29    1
    78    71    31    1
    79    72    32    1
    80    73    81    1
    81    74    82    1
    82    78    86    1
    83    49    17    1
    84    51    19    1
    85    52    20    1
    86    53    21    1
    87    55    23    1
    88    56    24    1
    89    65    25    1
    90    67    27    1
    91    70    30    1
    92    75    83    1
    93    76    84    1
    94    77    85    1
    95    79    87    1
    96    80    88    1
    97    17    89    1
    98    18    90    1
    99    19    91    1
   100    20    92    1
   101    21    93    1
   102    22    94    1
   103    23    95    1
   104    24    96    1
   105    25    97    1
   106    26    98    1
   107    27    99    1
   108    28   100    1
   109    29   101    1
   110    30   102    1
   111    31   103    1
   112    32   104    1
   113    33   105    1
   114    34   106    1
   115    35   107    1
   116    36   108    1
   117    37   109    1
   118    38   110    1
   119    39   111    1
   120    40   112    1
   121    41   113    1
   122    42   114    1
   123    43   115    1
   124    44   116    1
   125    45   117    1
   126    46   118    1
   127    47   119    1
   128    48   120    1
   129    49   121    1
   130    50   122    1
   131    51   123    1
   132    52   124    1
   133    53   125    1
   134    54   126    1
   135    55   127    1
   136    56   128    1
   137    57   129    1
   138    58   130    1
   139    59   131    1
   140    60   132    1
   141    61   133    1
   142    62   134    1
   143    63   135    1
   144    64   136    1
   145    65   137    1
   146    66   138    1
   147    67   139    1
   148    68   140    1
   149    69   141    1
   150    70   142    1
   151    71   143    1
   152    72   144    1
   153    73   145    1
   154    74   146    1
   155    75   147    1
   156    76   148    1
   157    77   149    1
   158    78   150    1
   159    79   151    1
   160    80   152    1
   161    81   153    1
   162    81   154    1
   163    82   155    1
   164    82   156    1
   165    83   157    1
   166    83   158    1
   167    84   159    1
   168    84   160    1
   169    85   161    1
   170    85   162    1
   171    86   163    1
   172    86   164    1
   173    87   165    1
   174    87   166    1
   175    88   167    1
   176    88   168    1
