@<TRIPOS>MOLECULE
887
 6 5 0 0 0
SMALL
GASTEIGER

@<TRIPOS>ATOM
      1 O           1.0139    0.0221    0.1008 O.3     1  LIG1       -0.3982
      2 C           0.5449    1.2204    0.6938 C.3     1  LIG1        0.0330
      3 H           1.3172    0.2471   -0.7956 H       1  LIG1        0.2090
      4 H           0.1955    1.0023    1.7051 H       1  LIG1        0.0521
      5 H          -0.2822    1.6203    0.1026 H       1  LIG1        0.0521
      6 H           1.3591    1.9473    0.7401 H       1  LIG1        0.0521
@<TRIPOS>BOND
     1     1     2    1
     2     1     3    1
     3     2     4    1
     4     2     5    1
     5     2     6    1
